
        <routes>
            <vType id="car" accel="0.8" decel="4.5" sigma="0.5" length="5" minGap="2.5" maxSpeed="15" guiShape="passenger"/>
            <trip id="north___east_8" type="car" from="north___intersectionCenter" to="intersectionCenter___east" depart="8" />    <trip id="south___north_9" type="car" from="south___intersectionCenter" to="intersectionCenter___north" depart="9" />    <trip id="south___north_11" type="car" from="south___intersectionCenter" to="intersectionCenter___north" depart="11" />    <trip id="north___south_14" type="car" from="north___intersectionCenter" to="intersectionCenter___south" depart="14" />    <trip id="east___north_18" type="car" from="east___intersectionCenter" to="intersectionCenter___north" depart="18" />    <trip id="east___north_21" type="car" from="east___intersectionCenter" to="intersectionCenter___north" depart="21" />    <trip id="west___north_25" type="car" from="west___intersectionCenter" to="intersectionCenter___north" depart="25" />    <trip id="west___south_32" type="car" from="west___intersectionCenter" to="intersectionCenter___south" depart="32" />    <trip id="south___north_34" type="car" from="south___intersectionCenter" to="intersectionCenter___north" depart="34" />    <trip id="west___north_51" type="car" from="west___intersectionCenter" to="intersectionCenter___north" depart="51" />    <trip id="east___west_52" type="car" from="east___intersectionCenter" to="intersectionCenter___west" depart="52" />    <trip id="north___east_57" type="car" from="north___intersectionCenter" to="intersectionCenter___east" depart="57" />    <trip id="west___east_66" type="car" from="west___intersectionCenter" to="intersectionCenter___east" depart="66" />    <trip id="east___south_68" type="car" from="east___intersectionCenter" to="intersectionCenter___south" depart="68" />    <trip id="south___west_68" type="car" from="south___intersectionCenter" to="intersectionCenter___west" depart="68" />    <trip id="south___west_70" type="car" from="south___intersectionCenter" to="intersectionCenter___west" depart="70" />    <trip id="west___east_70" type="car" from="west___intersectionCenter" to="intersectionCenter___east" depart="70" />    <trip id="east___south_72" type="car" from="east___intersectionCenter" to="intersectionCenter___south" depart="72" />    <trip id="south___north_76" type="car" from="south___intersectionCenter" to="intersectionCenter___north" depart="76" />    <trip id="west___east_80" type="car" from="west___intersectionCenter" to="intersectionCenter___east" depart="80" />    <trip id="south___west_82" type="car" from="south___intersectionCenter" to="intersectionCenter___west" depart="82" />    <trip id="west___south_82" type="car" from="west___intersectionCenter" to="intersectionCenter___south" depart="82" />    <trip id="south___east_90" type="car" from="south___intersectionCenter" to="intersectionCenter___east" depart="90" />    <trip id="south___west_93" type="car" from="south___intersectionCenter" to="intersectionCenter___west" depart="93" />    <trip id="west___east_93" type="car" from="west___intersectionCenter" to="intersectionCenter___east" depart="93" />    <trip id="west___north_94" type="car" from="west___intersectionCenter" to="intersectionCenter___north" depart="94" />    <trip id="east___south_96" type="car" from="east___intersectionCenter" to="intersectionCenter___south" depart="96" />    <trip id="south___east_100" type="car" from="south___intersectionCenter" to="intersectionCenter___east" depart="100" />    <trip id="west___east_100" type="car" from="west___intersectionCenter" to="intersectionCenter___east" depart="100" />    <trip id="west___north_101" type="car" from="west___intersectionCenter" to="intersectionCenter___north" depart="101" />    <trip id="south___west_102" type="car" from="south___intersectionCenter" to="intersectionCenter___west" depart="102" />    <trip id="north___east_103" type="car" from="north___intersectionCenter" to="intersectionCenter___east" depart="103" />    <trip id="east___west_105" type="car" from="east___intersectionCenter" to="intersectionCenter___west" depart="105" />    <trip id="west___south_106" type="car" from="west___intersectionCenter" to="intersectionCenter___south" depart="106" />    <trip id="west___east_108" type="car" from="west___intersectionCenter" to="intersectionCenter___east" depart="108" />    <trip id="east___north_113" type="car" from="east___intersectionCenter" to="intersectionCenter___north" depart="113" />    <trip id="north___west_117" type="car" from="north___intersectionCenter" to="intersectionCenter___west" depart="117" />    <trip id="north___west_118" type="car" from="north___intersectionCenter" to="intersectionCenter___west" depart="118" />    <trip id="north___south_120" type="car" from="north___intersectionCenter" to="intersectionCenter___south" depart="120" />    <trip id="south___east_127" type="car" from="south___intersectionCenter" to="intersectionCenter___east" depart="127" />    <trip id="north___west_138" type="car" from="north___intersectionCenter" to="intersectionCenter___west" depart="138" />    <trip id="north___south_145" type="car" from="north___intersectionCenter" to="intersectionCenter___south" depart="145" />    <trip id="north___south_150" type="car" from="north___intersectionCenter" to="intersectionCenter___south" depart="150" />    <trip id="west___south_158" type="car" from="west___intersectionCenter" to="intersectionCenter___south" depart="158" />    <trip id="east___south_170" type="car" from="east___intersectionCenter" to="intersectionCenter___south" depart="170" />    <trip id="east___south_171" type="car" from="east___intersectionCenter" to="intersectionCenter___south" depart="171" />    <trip id="north___east_177" type="car" from="north___intersectionCenter" to="intersectionCenter___east" depart="177" />    <trip id="north___east_180" type="car" from="north___intersectionCenter" to="intersectionCenter___east" depart="180" />    <trip id="south___west_183" type="car" from="south___intersectionCenter" to="intersectionCenter___west" depart="183" />    <trip id="north___east_186" type="car" from="north___intersectionCenter" to="intersectionCenter___east" depart="186" />    <trip id="west___south_195" type="car" from="west___intersectionCenter" to="intersectionCenter___south" depart="195" />    <trip id="south___west_199" type="car" from="south___intersectionCenter" to="intersectionCenter___west" depart="199" />    <trip id="south___north_200" type="car" from="south___intersectionCenter" to="intersectionCenter___north" depart="200" />    <trip id="west___south_209" type="car" from="west___intersectionCenter" to="intersectionCenter___south" depart="209" />    <trip id="west___east_212" type="car" from="west___intersectionCenter" to="intersectionCenter___east" depart="212" />    <trip id="north___south_214" type="car" from="north___intersectionCenter" to="intersectionCenter___south" depart="214" />    <trip id="north___east_227" type="car" from="north___intersectionCenter" to="intersectionCenter___east" depart="227" />    <trip id="south___east_231" type="car" from="south___intersectionCenter" to="intersectionCenter___east" depart="231" />    <trip id="south___east_232" type="car" from="south___intersectionCenter" to="intersectionCenter___east" depart="232" />    <trip id="north___east_234" type="car" from="north___intersectionCenter" to="intersectionCenter___east" depart="234" />    <trip id="east___north_236" type="car" from="east___intersectionCenter" to="intersectionCenter___north" depart="236" />    <trip id="west___north_237" type="car" from="west___intersectionCenter" to="intersectionCenter___north" depart="237" />    <trip id="east___north_238" type="car" from="east___intersectionCenter" to="intersectionCenter___north" depart="238" />    <trip id="north___east_246" type="car" from="north___intersectionCenter" to="intersectionCenter___east" depart="246" />    <trip id="north___east_247" type="car" from="north___intersectionCenter" to="intersectionCenter___east" depart="247" />    <trip id="east___south_257" type="car" from="east___intersectionCenter" to="intersectionCenter___south" depart="257" />    <trip id="south___west_261" type="car" from="south___intersectionCenter" to="intersectionCenter___west" depart="261" />    <trip id="east___west_262" type="car" from="east___intersectionCenter" to="intersectionCenter___west" depart="262" />    <trip id="south___north_266" type="car" from="south___intersectionCenter" to="intersectionCenter___north" depart="266" />    <trip id="east___west_269" type="car" from="east___intersectionCenter" to="intersectionCenter___west" depart="269" />    <trip id="west___north_273" type="car" from="west___intersectionCenter" to="intersectionCenter___north" depart="273" />    <trip id="south___west_274" type="car" from="south___intersectionCenter" to="intersectionCenter___west" depart="274" />    <trip id="east___west_276" type="car" from="east___intersectionCenter" to="intersectionCenter___west" depart="276" />    <trip id="north___west_280" type="car" from="north___intersectionCenter" to="intersectionCenter___west" depart="280" />    <trip id="north___south_281" type="car" from="north___intersectionCenter" to="intersectionCenter___south" depart="281" />    <trip id="north___south_282" type="car" from="north___intersectionCenter" to="intersectionCenter___south" depart="282" />    <trip id="north___south_288" type="car" from="north___intersectionCenter" to="intersectionCenter___south" depart="288" />    <trip id="west___north_301" type="car" from="west___intersectionCenter" to="intersectionCenter___north" depart="301" />    <trip id="west___south_306" type="car" from="west___intersectionCenter" to="intersectionCenter___south" depart="306" />    <trip id="south___north_307" type="car" from="south___intersectionCenter" to="intersectionCenter___north" depart="307" />    <trip id="east___west_313" type="car" from="east___intersectionCenter" to="intersectionCenter___west" depart="313" />    <trip id="north___east_318" type="car" from="north___intersectionCenter" to="intersectionCenter___east" depart="318" />    <trip id="east___north_339" type="car" from="east___intersectionCenter" to="intersectionCenter___north" depart="339" />    <trip id="south___east_344" type="car" from="south___intersectionCenter" to="intersectionCenter___east" depart="344" />    <trip id="east___south_349" type="car" from="east___intersectionCenter" to="intersectionCenter___south" depart="349" />    <trip id="north___east_353" type="car" from="north___intersectionCenter" to="intersectionCenter___east" depart="353" />    <trip id="south___north_364" type="car" from="south___intersectionCenter" to="intersectionCenter___north" depart="364" />    <trip id="south___north_365" type="car" from="south___intersectionCenter" to="intersectionCenter___north" depart="365" />    <trip id="east___north_368" type="car" from="east___intersectionCenter" to="intersectionCenter___north" depart="368" />    <trip id="north___east_372" type="car" from="north___intersectionCenter" to="intersectionCenter___east" depart="372" />    <trip id="west___east_373" type="car" from="west___intersectionCenter" to="intersectionCenter___east" depart="373" />    <trip id="east___west_377" type="car" from="east___intersectionCenter" to="intersectionCenter___west" depart="377" />    <trip id="north___east_378" type="car" from="north___intersectionCenter" to="intersectionCenter___east" depart="378" />    <trip id="west___north_389" type="car" from="west___intersectionCenter" to="intersectionCenter___north" depart="389" />    <trip id="north___west_390" type="car" from="north___intersectionCenter" to="intersectionCenter___west" depart="390" />    <trip id="east___west_395" type="car" from="east___intersectionCenter" to="intersectionCenter___west" depart="395" />    <trip id="east___north_397" type="car" from="east___intersectionCenter" to="intersectionCenter___north" depart="397" />    <trip id="west___south_397" type="car" from="west___intersectionCenter" to="intersectionCenter___south" depart="397" />    <trip id="west___south_412" type="car" from="west___intersectionCenter" to="intersectionCenter___south" depart="412" />    <trip id="north___south_415" type="car" from="north___intersectionCenter" to="intersectionCenter___south" depart="415" />    <trip id="south___west_418" type="car" from="south___intersectionCenter" to="intersectionCenter___west" depart="418" />    <trip id="north___south_421" type="car" from="north___intersectionCenter" to="intersectionCenter___south" depart="421" />    <trip id="south___west_421" type="car" from="south___intersectionCenter" to="intersectionCenter___west" depart="421" />    <trip id="east___north_424" type="car" from="east___intersectionCenter" to="intersectionCenter___north" depart="424" />    <trip id="east___west_425" type="car" from="east___intersectionCenter" to="intersectionCenter___west" depart="425" />    <trip id="east___south_426" type="car" from="east___intersectionCenter" to="intersectionCenter___south" depart="426" />    <trip id="south___north_426" type="car" from="south___intersectionCenter" to="intersectionCenter___north" depart="426" />    <trip id="east___north_432" type="car" from="east___intersectionCenter" to="intersectionCenter___north" depart="432" />    <trip id="south___north_443" type="car" from="south___intersectionCenter" to="intersectionCenter___north" depart="443" />    <trip id="north___south_448" type="car" from="north___intersectionCenter" to="intersectionCenter___south" depart="448" />    <trip id="south___west_450" type="car" from="south___intersectionCenter" to="intersectionCenter___west" depart="450" />    <trip id="north___east_456" type="car" from="north___intersectionCenter" to="intersectionCenter___east" depart="456" />    <trip id="east___west_467" type="car" from="east___intersectionCenter" to="intersectionCenter___west" depart="467" />    <trip id="north___west_484" type="car" from="north___intersectionCenter" to="intersectionCenter___west" depart="484" />    <trip id="east___west_492" type="car" from="east___intersectionCenter" to="intersectionCenter___west" depart="492" />    <trip id="west___east_500" type="car" from="west___intersectionCenter" to="intersectionCenter___east" depart="500" />    <trip id="south___north_503" type="car" from="south___intersectionCenter" to="intersectionCenter___north" depart="503" />    <trip id="west___east_506" type="car" from="west___intersectionCenter" to="intersectionCenter___east" depart="506" />    <trip id="north___south_510" type="car" from="north___intersectionCenter" to="intersectionCenter___south" depart="510" />    <trip id="south___north_510" type="car" from="south___intersectionCenter" to="intersectionCenter___north" depart="510" />    <trip id="north___south_517" type="car" from="north___intersectionCenter" to="intersectionCenter___south" depart="517" />    <trip id="east___north_518" type="car" from="east___intersectionCenter" to="intersectionCenter___north" depart="518" />    <trip id="north___east_520" type="car" from="north___intersectionCenter" to="intersectionCenter___east" depart="520" />    <trip id="north___south_525" type="car" from="north___intersectionCenter" to="intersectionCenter___south" depart="525" />    <trip id="north___east_539" type="car" from="north___intersectionCenter" to="intersectionCenter___east" depart="539" />    <trip id="east___west_540" type="car" from="east___intersectionCenter" to="intersectionCenter___west" depart="540" />    <trip id="south___east_541" type="car" from="south___intersectionCenter" to="intersectionCenter___east" depart="541" />    <trip id="east___north_543" type="car" from="east___intersectionCenter" to="intersectionCenter___north" depart="543" />    <trip id="north___east_544" type="car" from="north___intersectionCenter" to="intersectionCenter___east" depart="544" />    <trip id="west___east_554" type="car" from="west___intersectionCenter" to="intersectionCenter___east" depart="554" />    <trip id="west___east_555" type="car" from="west___intersectionCenter" to="intersectionCenter___east" depart="555" />    <trip id="north___east_558" type="car" from="north___intersectionCenter" to="intersectionCenter___east" depart="558" />    <trip id="east___south_561" type="car" from="east___intersectionCenter" to="intersectionCenter___south" depart="561" />    <trip id="west___north_563" type="car" from="west___intersectionCenter" to="intersectionCenter___north" depart="563" />    <trip id="east___west_565" type="car" from="east___intersectionCenter" to="intersectionCenter___west" depart="565" />    <trip id="west___south_569" type="car" from="west___intersectionCenter" to="intersectionCenter___south" depart="569" />    <trip id="south___east_570" type="car" from="south___intersectionCenter" to="intersectionCenter___east" depart="570" />    <trip id="south___west_581" type="car" from="south___intersectionCenter" to="intersectionCenter___west" depart="581" />    <trip id="west___north_581" type="car" from="west___intersectionCenter" to="intersectionCenter___north" depart="581" />    <trip id="west___east_585" type="car" from="west___intersectionCenter" to="intersectionCenter___east" depart="585" />    <trip id="north___east_586" type="car" from="north___intersectionCenter" to="intersectionCenter___east" depart="586" />    <trip id="south___west_586" type="car" from="south___intersectionCenter" to="intersectionCenter___west" depart="586" />    <trip id="north___west_593" type="car" from="north___intersectionCenter" to="intersectionCenter___west" depart="593" />    <trip id="west___east_598" type="car" from="west___intersectionCenter" to="intersectionCenter___east" depart="598" />    <trip id="north___south_611" type="car" from="north___intersectionCenter" to="intersectionCenter___south" depart="611" />    <trip id="east___south_623" type="car" from="east___intersectionCenter" to="intersectionCenter___south" depart="623" />    <trip id="west___east_632" type="car" from="west___intersectionCenter" to="intersectionCenter___east" depart="632" />    <trip id="west___south_634" type="car" from="west___intersectionCenter" to="intersectionCenter___south" depart="634" />    <trip id="south___east_640" type="car" from="south___intersectionCenter" to="intersectionCenter___east" depart="640" />    <trip id="south___west_642" type="car" from="south___intersectionCenter" to="intersectionCenter___west" depart="642" />    <trip id="east___south_644" type="car" from="east___intersectionCenter" to="intersectionCenter___south" depart="644" />    <trip id="north___west_651" type="car" from="north___intersectionCenter" to="intersectionCenter___west" depart="651" />    <trip id="east___north_654" type="car" from="east___intersectionCenter" to="intersectionCenter___north" depart="654" />    <trip id="south___east_657" type="car" from="south___intersectionCenter" to="intersectionCenter___east" depart="657" />    <trip id="west___north_664" type="car" from="west___intersectionCenter" to="intersectionCenter___north" depart="664" />    <trip id="north___west_666" type="car" from="north___intersectionCenter" to="intersectionCenter___west" depart="666" />    <trip id="west___south_667" type="car" from="west___intersectionCenter" to="intersectionCenter___south" depart="667" />    <trip id="south___west_670" type="car" from="south___intersectionCenter" to="intersectionCenter___west" depart="670" />    <trip id="west___east_670" type="car" from="west___intersectionCenter" to="intersectionCenter___east" depart="670" />    <trip id="north___east_676" type="car" from="north___intersectionCenter" to="intersectionCenter___east" depart="676" />    <trip id="east___north_678" type="car" from="east___intersectionCenter" to="intersectionCenter___north" depart="678" />    <trip id="south___east_678" type="car" from="south___intersectionCenter" to="intersectionCenter___east" depart="678" />    <trip id="south___north_679" type="car" from="south___intersectionCenter" to="intersectionCenter___north" depart="679" />    <trip id="east___west_686" type="car" from="east___intersectionCenter" to="intersectionCenter___west" depart="686" />    <trip id="east___north_690" type="car" from="east___intersectionCenter" to="intersectionCenter___north" depart="690" />    <trip id="west___north_690" type="car" from="west___intersectionCenter" to="intersectionCenter___north" depart="690" />    <trip id="north___east_693" type="car" from="north___intersectionCenter" to="intersectionCenter___east" depart="693" />    <trip id="south___north_695" type="car" from="south___intersectionCenter" to="intersectionCenter___north" depart="695" />    <trip id="west___east_695" type="car" from="west___intersectionCenter" to="intersectionCenter___east" depart="695" />    <trip id="south___north_700" type="car" from="south___intersectionCenter" to="intersectionCenter___north" depart="700" />    <trip id="north___east_701" type="car" from="north___intersectionCenter" to="intersectionCenter___east" depart="701" />    <trip id="south___east_704" type="car" from="south___intersectionCenter" to="intersectionCenter___east" depart="704" />    <trip id="west___south_704" type="car" from="west___intersectionCenter" to="intersectionCenter___south" depart="704" />    <trip id="south___north_707" type="car" from="south___intersectionCenter" to="intersectionCenter___north" depart="707" />    <trip id="west___south_710" type="car" from="west___intersectionCenter" to="intersectionCenter___south" depart="710" />    <trip id="south___north_714" type="car" from="south___intersectionCenter" to="intersectionCenter___north" depart="714" />    <trip id="west___south_714" type="car" from="west___intersectionCenter" to="intersectionCenter___south" depart="714" />    <trip id="east___south_715" type="car" from="east___intersectionCenter" to="intersectionCenter___south" depart="715" />    <trip id="west___east_717" type="car" from="west___intersectionCenter" to="intersectionCenter___east" depart="717" />    <trip id="south___north_726" type="car" from="south___intersectionCenter" to="intersectionCenter___north" depart="726" />    <trip id="south___east_730" type="car" from="south___intersectionCenter" to="intersectionCenter___east" depart="730" />    <trip id="east___north_736" type="car" from="east___intersectionCenter" to="intersectionCenter___north" depart="736" />    <trip id="east___west_740" type="car" from="east___intersectionCenter" to="intersectionCenter___west" depart="740" />    <trip id="east___south_741" type="car" from="east___intersectionCenter" to="intersectionCenter___south" depart="741" />    <trip id="south___west_762" type="car" from="south___intersectionCenter" to="intersectionCenter___west" depart="762" />    <trip id="north___east_767" type="car" from="north___intersectionCenter" to="intersectionCenter___east" depart="767" />    <trip id="south___east_770" type="car" from="south___intersectionCenter" to="intersectionCenter___east" depart="770" />    <trip id="west___south_772" type="car" from="west___intersectionCenter" to="intersectionCenter___south" depart="772" />    <trip id="west___north_774" type="car" from="west___intersectionCenter" to="intersectionCenter___north" depart="774" />    <trip id="west___east_781" type="car" from="west___intersectionCenter" to="intersectionCenter___east" depart="781" />    <trip id="west___north_783" type="car" from="west___intersectionCenter" to="intersectionCenter___north" depart="783" />    <trip id="east___south_793" type="car" from="east___intersectionCenter" to="intersectionCenter___south" depart="793" />    <trip id="east___north_800" type="car" from="east___intersectionCenter" to="intersectionCenter___north" depart="800" />    <trip id="west___east_801" type="car" from="west___intersectionCenter" to="intersectionCenter___east" depart="801" />    <trip id="south___east_805" type="car" from="south___intersectionCenter" to="intersectionCenter___east" depart="805" />    <trip id="east___south_806" type="car" from="east___intersectionCenter" to="intersectionCenter___south" depart="806" />    <trip id="south___east_806" type="car" from="south___intersectionCenter" to="intersectionCenter___east" depart="806" />    <trip id="north___east_814" type="car" from="north___intersectionCenter" to="intersectionCenter___east" depart="814" />    <trip id="west___north_822" type="car" from="west___intersectionCenter" to="intersectionCenter___north" depart="822" />    <trip id="east___north_825" type="car" from="east___intersectionCenter" to="intersectionCenter___north" depart="825" />    <trip id="south___east_827" type="car" from="south___intersectionCenter" to="intersectionCenter___east" depart="827" />    <trip id="east___north_829" type="car" from="east___intersectionCenter" to="intersectionCenter___north" depart="829" />    <trip id="south___west_830" type="car" from="south___intersectionCenter" to="intersectionCenter___west" depart="830" />    <trip id="west___east_834" type="car" from="west___intersectionCenter" to="intersectionCenter___east" depart="834" />    <trip id="west___south_844" type="car" from="west___intersectionCenter" to="intersectionCenter___south" depart="844" />    <trip id="north___south_848" type="car" from="north___intersectionCenter" to="intersectionCenter___south" depart="848" />    <trip id="west___east_859" type="car" from="west___intersectionCenter" to="intersectionCenter___east" depart="859" />    <trip id="west___north_860" type="car" from="west___intersectionCenter" to="intersectionCenter___north" depart="860" />    <trip id="west___south_865" type="car" from="west___intersectionCenter" to="intersectionCenter___south" depart="865" />    <trip id="east___west_867" type="car" from="east___intersectionCenter" to="intersectionCenter___west" depart="867" />    <trip id="west___east_880" type="car" from="west___intersectionCenter" to="intersectionCenter___east" depart="880" />    <trip id="west___north_882" type="car" from="west___intersectionCenter" to="intersectionCenter___north" depart="882" />    <trip id="west___south_884" type="car" from="west___intersectionCenter" to="intersectionCenter___south" depart="884" />    <trip id="north___west_886" type="car" from="north___intersectionCenter" to="intersectionCenter___west" depart="886" />    <trip id="west___east_886" type="car" from="west___intersectionCenter" to="intersectionCenter___east" depart="886" />    <trip id="north___east_887" type="car" from="north___intersectionCenter" to="intersectionCenter___east" depart="887" />    <trip id="north___west_896" type="car" from="north___intersectionCenter" to="intersectionCenter___west" depart="896" />    <trip id="west___east_899" type="car" from="west___intersectionCenter" to="intersectionCenter___east" depart="899" />    <trip id="east___south_901" type="car" from="east___intersectionCenter" to="intersectionCenter___south" depart="901" />    <trip id="east___south_904" type="car" from="east___intersectionCenter" to="intersectionCenter___south" depart="904" />    <trip id="west___south_904" type="car" from="west___intersectionCenter" to="intersectionCenter___south" depart="904" />    <trip id="south___east_906" type="car" from="south___intersectionCenter" to="intersectionCenter___east" depart="906" />    <trip id="north___east_911" type="car" from="north___intersectionCenter" to="intersectionCenter___east" depart="911" />    <trip id="south___north_911" type="car" from="south___intersectionCenter" to="intersectionCenter___north" depart="911" />    <trip id="north___south_914" type="car" from="north___intersectionCenter" to="intersectionCenter___south" depart="914" />    <trip id="north___west_921" type="car" from="north___intersectionCenter" to="intersectionCenter___west" depart="921" />    <trip id="north___west_924" type="car" from="north___intersectionCenter" to="intersectionCenter___west" depart="924" />    <trip id="east___north_925" type="car" from="east___intersectionCenter" to="intersectionCenter___north" depart="925" />    <trip id="east___south_929" type="car" from="east___intersectionCenter" to="intersectionCenter___south" depart="929" />    <trip id="north___west_932" type="car" from="north___intersectionCenter" to="intersectionCenter___west" depart="932" />    <trip id="west___east_933" type="car" from="west___intersectionCenter" to="intersectionCenter___east" depart="933" />    <trip id="south___east_934" type="car" from="south___intersectionCenter" to="intersectionCenter___east" depart="934" />    <trip id="east___west_938" type="car" from="east___intersectionCenter" to="intersectionCenter___west" depart="938" />    <trip id="south___east_938" type="car" from="south___intersectionCenter" to="intersectionCenter___east" depart="938" />    <trip id="north___south_943" type="car" from="north___intersectionCenter" to="intersectionCenter___south" depart="943" />    <trip id="south___west_949" type="car" from="south___intersectionCenter" to="intersectionCenter___west" depart="949" />    <trip id="south___east_952" type="car" from="south___intersectionCenter" to="intersectionCenter___east" depart="952" />    <trip id="west___north_956" type="car" from="west___intersectionCenter" to="intersectionCenter___north" depart="956" />    <trip id="east___north_957" type="car" from="east___intersectionCenter" to="intersectionCenter___north" depart="957" />    <trip id="south___north_960" type="car" from="south___intersectionCenter" to="intersectionCenter___north" depart="960" />    <trip id="south___east_962" type="car" from="south___intersectionCenter" to="intersectionCenter___east" depart="962" />    <trip id="east___north_980" type="car" from="east___intersectionCenter" to="intersectionCenter___north" depart="980" />    <trip id="west___east_991" type="car" from="west___intersectionCenter" to="intersectionCenter___east" depart="991" /></routes>
