
        <routes>
            <vType id="car" accel="0.8" decel="4.5" sigma="0.5" length="5" minGap="2.5" maxSpeed="15" guiShape="passenger"/>
            <trip id="westBottom___northRight_2" type="car" from="westBottom___intersectionSW" to="intersectionNE___northRight" depart="2" />    <trip id="westBottom___westTop_4" type="car" from="westBottom___intersectionSW" to="intersectionNW___westTop" depart="4" />    <trip id="eastBottom___eastTop_6" type="car" from="eastBottom___intersectionSE" to="intersectionNE___eastTop" depart="6" />    <trip id="eastTop___westBottom_9" type="car" from="eastTop___intersectionNE" to="intersectionSW___westBottom" depart="9" />    <trip id="westBottom___southLeft_9" type="car" from="westBottom___intersectionSW" to="intersectionSW___southLeft" depart="9" />    <trip id="northLeft___eastTop_13" type="car" from="northLeft___intersectionNW" to="intersectionNE___eastTop" depart="13" />    <trip id="southRight___northLeft_13" type="car" from="southRight___intersectionSE" to="intersectionNW___northLeft" depart="13" />    <trip id="eastBottom___eastTop_14" type="car" from="eastBottom___intersectionSE" to="intersectionNE___eastTop" depart="14" />    <trip id="westTop___northLeft_18" type="car" from="westTop___intersectionNW" to="intersectionNW___northLeft" depart="18" />    <trip id="eastTop___eastBottom_19" type="car" from="eastTop___intersectionNE" to="intersectionSE___eastBottom" depart="19" />    <trip id="westTop___southRight_22" type="car" from="westTop___intersectionNW" to="intersectionSE___southRight" depart="22" />    <trip id="southLeft___eastTop_29" type="car" from="southLeft___intersectionSW" to="intersectionNE___eastTop" depart="29" />    <trip id="westBottom___southLeft_32" type="car" from="westBottom___intersectionSW" to="intersectionSW___southLeft" depart="32" />    <trip id="northRight___westBottom_36" type="car" from="northRight___intersectionNE" to="intersectionSW___westBottom" depart="36" />    <trip id="eastTop___southRight_37" type="car" from="eastTop___intersectionNE" to="intersectionSE___southRight" depart="37" />    <trip id="southLeft___eastBottom_37" type="car" from="southLeft___intersectionSW" to="intersectionSE___eastBottom" depart="37" />    <trip id="southLeft___southRight_42" type="car" from="southLeft___intersectionSW" to="intersectionSE___southRight" depart="42" />    <trip id="southLeft___northRight_43" type="car" from="southLeft___intersectionSW" to="intersectionNE___northRight" depart="43" />    <trip id="northRight___southLeft_45" type="car" from="northRight___intersectionNE" to="intersectionSW___southLeft" depart="45" />    <trip id="southLeft___eastTop_46" type="car" from="southLeft___intersectionSW" to="intersectionNE___eastTop" depart="46" />    <trip id="eastTop___northRight_47" type="car" from="eastTop___intersectionNE" to="intersectionNE___northRight" depart="47" />    <trip id="northRight___southLeft_51" type="car" from="northRight___intersectionNE" to="intersectionSW___southLeft" depart="51" />    <trip id="northLeft___westTop_56" type="car" from="northLeft___intersectionNW" to="intersectionNW___westTop" depart="56" />    <trip id="westBottom___northLeft_66" type="car" from="westBottom___intersectionSW" to="intersectionNW___northLeft" depart="66" />    <trip id="northRight___eastTop_68" type="car" from="northRight___intersectionNE" to="intersectionNE___eastTop" depart="68" />    <trip id="southLeft___northRight_68" type="car" from="southLeft___intersectionSW" to="intersectionNE___northRight" depart="68" />    <trip id="westTop___southLeft_68" type="car" from="westTop___intersectionNW" to="intersectionSW___southLeft" depart="68" />    <trip id="northRight___eastTop_70" type="car" from="northRight___intersectionNE" to="intersectionNE___eastTop" depart="70" />    <trip id="southLeft___eastBottom_72" type="car" from="southLeft___intersectionSW" to="intersectionSE___eastBottom" depart="72" />    <trip id="southRight___westTop_72" type="car" from="southRight___intersectionSE" to="intersectionNW___westTop" depart="72" />    <trip id="westTop___eastBottom_73" type="car" from="westTop___intersectionNW" to="intersectionSE___eastBottom" depart="73" />    <trip id="northLeft___southLeft_75" type="car" from="northLeft___intersectionNW" to="intersectionSW___southLeft" depart="75" />    <trip id="northLeft___westTop_81" type="car" from="northLeft___intersectionNW" to="intersectionNW___westTop" depart="81" />    <trip id="westBottom___southRight_83" type="car" from="westBottom___intersectionSW" to="intersectionSE___southRight" depart="83" />    <trip id="eastBottom___southLeft_92" type="car" from="eastBottom___intersectionSE" to="intersectionSW___southLeft" depart="92" />    <trip id="northLeft___westBottom_92" type="car" from="northLeft___intersectionNW" to="intersectionSW___westBottom" depart="92" />    <trip id="westTop___eastTop_92" type="car" from="westTop___intersectionNW" to="intersectionNE___eastTop" depart="92" />    <trip id="westBottom___southRight_93" type="car" from="westBottom___intersectionSW" to="intersectionSE___southRight" depart="93" />    <trip id="northRight___northLeft_96" type="car" from="northRight___intersectionNE" to="intersectionNW___northLeft" depart="96" />    <trip id="westBottom___southLeft_96" type="car" from="westBottom___intersectionSW" to="intersectionSW___southLeft" depart="96" />    <trip id="southLeft___westBottom_98" type="car" from="southLeft___intersectionSW" to="intersectionSW___westBottom" depart="98" />    <trip id="northRight___northLeft_100" type="car" from="northRight___intersectionNE" to="intersectionNW___northLeft" depart="100" />    <trip id="southRight___westBottom_101" type="car" from="southRight___intersectionSE" to="intersectionSW___westBottom" depart="101" />    <trip id="eastTop___westBottom_103" type="car" from="eastTop___intersectionNE" to="intersectionSW___westBottom" depart="103" />    <trip id="southLeft___southRight_106" type="car" from="southLeft___intersectionSW" to="intersectionSE___southRight" depart="106" />    <trip id="southLeft___eastTop_107" type="car" from="southLeft___intersectionSW" to="intersectionNE___eastTop" depart="107" />    <trip id="westBottom___eastTop_113" type="car" from="westBottom___intersectionSW" to="intersectionNE___eastTop" depart="113" />    <trip id="northRight___northLeft_114" type="car" from="northRight___intersectionNE" to="intersectionNW___northLeft" depart="114" />    <trip id="northLeft___northRight_115" type="car" from="northLeft___intersectionNW" to="intersectionNE___northRight" depart="115" />    <trip id="southRight___northLeft_115" type="car" from="southRight___intersectionSE" to="intersectionNW___northLeft" depart="115" />    <trip id="northRight___southRight_120" type="car" from="northRight___intersectionNE" to="intersectionSE___southRight" depart="120" />    <trip id="westBottom___northLeft_121" type="car" from="westBottom___intersectionSW" to="intersectionNW___northLeft" depart="121" />    <trip id="northRight___eastTop_122" type="car" from="northRight___intersectionNE" to="intersectionNE___eastTop" depart="122" />    <trip id="southLeft___southRight_122" type="car" from="southLeft___intersectionSW" to="intersectionSE___southRight" depart="122" />    <trip id="westTop___southLeft_122" type="car" from="westTop___intersectionNW" to="intersectionSW___southLeft" depart="122" />    <trip id="eastBottom___southLeft_126" type="car" from="eastBottom___intersectionSE" to="intersectionSW___southLeft" depart="126" />    <trip id="westBottom___eastBottom_126" type="car" from="westBottom___intersectionSW" to="intersectionSE___eastBottom" depart="126" />    <trip id="northLeft___southLeft_127" type="car" from="northLeft___intersectionNW" to="intersectionSW___southLeft" depart="127" />    <trip id="northLeft___westTop_128" type="car" from="northLeft___intersectionNW" to="intersectionNW___westTop" depart="128" />    <trip id="southLeft___eastBottom_129" type="car" from="southLeft___intersectionSW" to="intersectionSE___eastBottom" depart="129" />    <trip id="westTop___westBottom_130" type="car" from="westTop___intersectionNW" to="intersectionSW___westBottom" depart="130" />    <trip id="northRight___southRight_131" type="car" from="northRight___intersectionNE" to="intersectionSE___southRight" depart="131" />    <trip id="westTop___eastTop_132" type="car" from="westTop___intersectionNW" to="intersectionNE___eastTop" depart="132" />    <trip id="southRight___eastTop_143" type="car" from="southRight___intersectionSE" to="intersectionNE___eastTop" depart="143" />    <trip id="westTop___westBottom_143" type="car" from="westTop___intersectionNW" to="intersectionSW___westBottom" depart="143" />    <trip id="southLeft___northRight_148" type="car" from="southLeft___intersectionSW" to="intersectionNE___northRight" depart="148" />    <trip id="southLeft___westBottom_149" type="car" from="southLeft___intersectionSW" to="intersectionSW___westBottom" depart="149" />    <trip id="southRight___northLeft_150" type="car" from="southRight___intersectionSE" to="intersectionNW___northLeft" depart="150" />    <trip id="northLeft___southRight_156" type="car" from="northLeft___intersectionNW" to="intersectionSE___southRight" depart="156" />    <trip id="eastBottom___northRight_158" type="car" from="eastBottom___intersectionSE" to="intersectionNE___northRight" depart="158" />    <trip id="eastTop___southLeft_160" type="car" from="eastTop___intersectionNE" to="intersectionSW___southLeft" depart="160" />    <trip id="westBottom___southLeft_164" type="car" from="westBottom___intersectionSW" to="intersectionSW___southLeft" depart="164" />    <trip id="eastBottom___southLeft_165" type="car" from="eastBottom___intersectionSE" to="intersectionSW___southLeft" depart="165" />    <trip id="westTop___eastTop_166" type="car" from="westTop___intersectionNW" to="intersectionNE___eastTop" depart="166" />    <trip id="southLeft___eastBottom_169" type="car" from="southLeft___intersectionSW" to="intersectionSE___eastBottom" depart="169" />    <trip id="northLeft___southRight_170" type="car" from="northLeft___intersectionNW" to="intersectionSE___southRight" depart="170" />    <trip id="northLeft___westTop_171" type="car" from="northLeft___intersectionNW" to="intersectionNW___westTop" depart="171" />    <trip id="northLeft___eastBottom_177" type="car" from="northLeft___intersectionNW" to="intersectionSE___eastBottom" depart="177" />    <trip id="westTop___eastTop_177" type="car" from="westTop___intersectionNW" to="intersectionNE___eastTop" depart="177" />    <trip id="westTop___westBottom_182" type="car" from="westTop___intersectionNW" to="intersectionSW___westBottom" depart="182" />    <trip id="northLeft___southLeft_185" type="car" from="northLeft___intersectionNW" to="intersectionSW___southLeft" depart="185" />    <trip id="eastTop___southRight_187" type="car" from="eastTop___intersectionNE" to="intersectionSE___southRight" depart="187" />    <trip id="southRight___westTop_188" type="car" from="southRight___intersectionSE" to="intersectionNW___westTop" depart="188" />    <trip id="northLeft___westTop_189" type="car" from="northLeft___intersectionNW" to="intersectionNW___westTop" depart="189" />    <trip id="eastBottom___southRight_190" type="car" from="eastBottom___intersectionSE" to="intersectionSE___southRight" depart="190" />    <trip id="northRight___northLeft_191" type="car" from="northRight___intersectionNE" to="intersectionNW___northLeft" depart="191" />    <trip id="northRight___southRight_196" type="car" from="northRight___intersectionNE" to="intersectionSE___southRight" depart="196" />    <trip id="westBottom___northRight_196" type="car" from="westBottom___intersectionSW" to="intersectionNE___northRight" depart="196" />    <trip id="westBottom___southRight_197" type="car" from="westBottom___intersectionSW" to="intersectionSE___southRight" depart="197" />    <trip id="northRight___eastBottom_207" type="car" from="northRight___intersectionNE" to="intersectionSE___eastBottom" depart="207" />    <trip id="westTop___southRight_208" type="car" from="westTop___intersectionNW" to="intersectionSE___southRight" depart="208" />    <trip id="northRight___northLeft_209" type="car" from="northRight___intersectionNE" to="intersectionNW___northLeft" depart="209" />    <trip id="southLeft___eastBottom_210" type="car" from="southLeft___intersectionSW" to="intersectionSE___eastBottom" depart="210" />    <trip id="northLeft___westTop_211" type="car" from="northLeft___intersectionNW" to="intersectionNW___westTop" depart="211" />    <trip id="northRight___westBottom_211" type="car" from="northRight___intersectionNE" to="intersectionSW___westBottom" depart="211" />    <trip id="eastBottom___westBottom_214" type="car" from="eastBottom___intersectionSE" to="intersectionSW___westBottom" depart="214" />    <trip id="southRight___westBottom_215" type="car" from="southRight___intersectionSE" to="intersectionSW___westBottom" depart="215" />    <trip id="southLeft___westBottom_216" type="car" from="southLeft___intersectionSW" to="intersectionSW___westBottom" depart="216" />    <trip id="northLeft___southRight_220" type="car" from="northLeft___intersectionNW" to="intersectionSE___southRight" depart="220" />    <trip id="southLeft___northRight_221" type="car" from="southLeft___intersectionSW" to="intersectionNE___northRight" depart="221" />    <trip id="southLeft___westTop_224" type="car" from="southLeft___intersectionSW" to="intersectionNW___westTop" depart="224" />    <trip id="southRight___eastBottom_224" type="car" from="southRight___intersectionSE" to="intersectionSE___eastBottom" depart="224" />    <trip id="northRight___westBottom_226" type="car" from="northRight___intersectionNE" to="intersectionSW___westBottom" depart="226" />    <trip id="westBottom___eastTop_226" type="car" from="westBottom___intersectionSW" to="intersectionNE___eastTop" depart="226" />    <trip id="southRight___eastTop_227" type="car" from="southRight___intersectionSE" to="intersectionNE___eastTop" depart="227" />    <trip id="southRight___westBottom_228" type="car" from="southRight___intersectionSE" to="intersectionSW___westBottom" depart="228" />    <trip id="westBottom___northLeft_231" type="car" from="westBottom___intersectionSW" to="intersectionNW___northLeft" depart="231" />    <trip id="westTop___northLeft_231" type="car" from="westTop___intersectionNW" to="intersectionNW___northLeft" depart="231" />    <trip id="eastTop___northRight_237" type="car" from="eastTop___intersectionNE" to="intersectionNE___northRight" depart="237" />    <trip id="eastBottom___westBottom_239" type="car" from="eastBottom___intersectionSE" to="intersectionSW___westBottom" depart="239" />    <trip id="eastTop___northLeft_239" type="car" from="eastTop___intersectionNE" to="intersectionNW___northLeft" depart="239" />    <trip id="northLeft___westBottom_245" type="car" from="northLeft___intersectionNW" to="intersectionSW___westBottom" depart="245" />    <trip id="southLeft___eastBottom_247" type="car" from="southLeft___intersectionSW" to="intersectionSE___eastBottom" depart="247" />    <trip id="southRight___northRight_249" type="car" from="southRight___intersectionSE" to="intersectionNE___northRight" depart="249" />    <trip id="westTop___northRight_249" type="car" from="westTop___intersectionNW" to="intersectionNE___northRight" depart="249" />    <trip id="eastTop___westBottom_250" type="car" from="eastTop___intersectionNE" to="intersectionSW___westBottom" depart="250" />    <trip id="westTop___eastTop_250" type="car" from="westTop___intersectionNW" to="intersectionNE___eastTop" depart="250" />    <trip id="westBottom___westTop_252" type="car" from="westBottom___intersectionSW" to="intersectionNW___westTop" depart="252" />    <trip id="northRight___eastBottom_254" type="car" from="northRight___intersectionNE" to="intersectionSE___eastBottom" depart="254" />    <trip id="eastBottom___eastTop_256" type="car" from="eastBottom___intersectionSE" to="intersectionNE___eastTop" depart="256" />    <trip id="northLeft___southLeft_259" type="car" from="northLeft___intersectionNW" to="intersectionSW___southLeft" depart="259" />    <trip id="northLeft___northRight_262" type="car" from="northLeft___intersectionNW" to="intersectionNE___northRight" depart="262" />    <trip id="westBottom___eastBottom_265" type="car" from="westBottom___intersectionSW" to="intersectionSE___eastBottom" depart="265" />    <trip id="southRight___northLeft_272" type="car" from="southRight___intersectionSE" to="intersectionNW___northLeft" depart="272" />    <trip id="eastBottom___eastTop_275" type="car" from="eastBottom___intersectionSE" to="intersectionNE___eastTop" depart="275" />    <trip id="westTop___southRight_275" type="car" from="westTop___intersectionNW" to="intersectionSE___southRight" depart="275" />    <trip id="eastTop___westTop_276" type="car" from="eastTop___intersectionNE" to="intersectionNW___westTop" depart="276" />    <trip id="eastTop___eastBottom_280" type="car" from="eastTop___intersectionNE" to="intersectionSE___eastBottom" depart="280" />    <trip id="southRight___northLeft_281" type="car" from="southRight___intersectionSE" to="intersectionNW___northLeft" depart="281" />    <trip id="eastBottom___westBottom_282" type="car" from="eastBottom___intersectionSE" to="intersectionSW___westBottom" depart="282" />    <trip id="northLeft___southRight_284" type="car" from="northLeft___intersectionNW" to="intersectionSE___southRight" depart="284" />    <trip id="eastTop___northLeft_290" type="car" from="eastTop___intersectionNE" to="intersectionNW___northLeft" depart="290" />    <trip id="eastBottom___southRight_291" type="car" from="eastBottom___intersectionSE" to="intersectionSE___southRight" depart="291" />    <trip id="southLeft___eastTop_293" type="car" from="southLeft___intersectionSW" to="intersectionNE___eastTop" depart="293" />    <trip id="westTop___southRight_295" type="car" from="westTop___intersectionNW" to="intersectionSE___southRight" depart="295" />    <trip id="northRight___eastTop_296" type="car" from="northRight___intersectionNE" to="intersectionNE___eastTop" depart="296" />    <trip id="southLeft___eastBottom_296" type="car" from="southLeft___intersectionSW" to="intersectionSE___eastBottom" depart="296" />    <trip id="eastTop___westTop_297" type="car" from="eastTop___intersectionNE" to="intersectionNW___westTop" depart="297" />    <trip id="northLeft___northRight_299" type="car" from="northLeft___intersectionNW" to="intersectionNE___northRight" depart="299" />    <trip id="eastBottom___southLeft_301" type="car" from="eastBottom___intersectionSE" to="intersectionSW___southLeft" depart="301" />    <trip id="eastTop___westTop_312" type="car" from="eastTop___intersectionNE" to="intersectionNW___westTop" depart="312" />    <trip id="northRight___eastBottom_316" type="car" from="northRight___intersectionNE" to="intersectionSE___eastBottom" depart="316" />    <trip id="northRight___southLeft_318" type="car" from="northRight___intersectionNE" to="intersectionSW___southLeft" depart="318" />    <trip id="northLeft___westTop_319" type="car" from="northLeft___intersectionNW" to="intersectionNW___westTop" depart="319" />    <trip id="westBottom___northLeft_320" type="car" from="westBottom___intersectionSW" to="intersectionNW___northLeft" depart="320" />    <trip id="westTop___northLeft_320" type="car" from="westTop___intersectionNW" to="intersectionNW___northLeft" depart="320" />    <trip id="northRight___northLeft_321" type="car" from="northRight___intersectionNE" to="intersectionNW___northLeft" depart="321" />    <trip id="northRight___eastTop_323" type="car" from="northRight___intersectionNE" to="intersectionNE___eastTop" depart="323" />    <trip id="westBottom___southRight_323" type="car" from="westBottom___intersectionSW" to="intersectionSE___southRight" depart="323" />    <trip id="southLeft___eastBottom_324" type="car" from="southLeft___intersectionSW" to="intersectionSE___eastBottom" depart="324" />    <trip id="northRight___northLeft_326" type="car" from="northRight___intersectionNE" to="intersectionNW___northLeft" depart="326" />    <trip id="northLeft___eastBottom_330" type="car" from="northLeft___intersectionNW" to="intersectionSE___eastBottom" depart="330" />    <trip id="eastBottom___eastTop_332" type="car" from="eastBottom___intersectionSE" to="intersectionNE___eastTop" depart="332" />    <trip id="northRight___northLeft_333" type="car" from="northRight___intersectionNE" to="intersectionNW___northLeft" depart="333" />    <trip id="westTop___eastTop_336" type="car" from="westTop___intersectionNW" to="intersectionNE___eastTop" depart="336" />    <trip id="northLeft___westTop_338" type="car" from="northLeft___intersectionNW" to="intersectionNW___westTop" depart="338" />    <trip id="southRight___eastTop_341" type="car" from="southRight___intersectionSE" to="intersectionNE___eastTop" depart="341" />    <trip id="southRight___westTop_343" type="car" from="southRight___intersectionSE" to="intersectionNW___westTop" depart="343" />    <trip id="westTop___northLeft_344" type="car" from="westTop___intersectionNW" to="intersectionNW___northLeft" depart="344" />    <trip id="eastBottom___northLeft_346" type="car" from="eastBottom___intersectionSE" to="intersectionNW___northLeft" depart="346" />    <trip id="eastTop___northRight_347" type="car" from="eastTop___intersectionNE" to="intersectionNE___northRight" depart="347" />    <trip id="northRight___westBottom_348" type="car" from="northRight___intersectionNE" to="intersectionSW___westBottom" depart="348" />    <trip id="eastTop___southRight_349" type="car" from="eastTop___intersectionNE" to="intersectionSE___southRight" depart="349" />    <trip id="northLeft___northRight_349" type="car" from="northLeft___intersectionNW" to="intersectionNE___northRight" depart="349" />    <trip id="eastTop___eastBottom_350" type="car" from="eastTop___intersectionNE" to="intersectionSE___eastBottom" depart="350" />    <trip id="eastBottom___eastTop_352" type="car" from="eastBottom___intersectionSE" to="intersectionNE___eastTop" depart="352" />    <trip id="northLeft___eastTop_353" type="car" from="northLeft___intersectionNW" to="intersectionNE___eastTop" depart="353" />    <trip id="westTop___northRight_353" type="car" from="westTop___intersectionNW" to="intersectionNE___northRight" depart="353" />    <trip id="southLeft___northLeft_354" type="car" from="southLeft___intersectionSW" to="intersectionNW___northLeft" depart="354" />    <trip id="eastBottom___northRight_356" type="car" from="eastBottom___intersectionSE" to="intersectionNE___northRight" depart="356" />    <trip id="southRight___eastTop_357" type="car" from="southRight___intersectionSE" to="intersectionNE___eastTop" depart="357" />    <trip id="westTop___westBottom_358" type="car" from="westTop___intersectionNW" to="intersectionSW___westBottom" depart="358" />    <trip id="southLeft___northRight_363" type="car" from="southLeft___intersectionSW" to="intersectionNE___northRight" depart="363" />    <trip id="southLeft___eastBottom_370" type="car" from="southLeft___intersectionSW" to="intersectionSE___eastBottom" depart="370" />    <trip id="westTop___northLeft_371" type="car" from="westTop___intersectionNW" to="intersectionNW___northLeft" depart="371" />    <trip id="eastBottom___northRight_375" type="car" from="eastBottom___intersectionSE" to="intersectionNE___northRight" depart="375" />    <trip id="eastBottom___westBottom_376" type="car" from="eastBottom___intersectionSE" to="intersectionSW___westBottom" depart="376" />    <trip id="southLeft___westTop_376" type="car" from="southLeft___intersectionSW" to="intersectionNW___westTop" depart="376" />    <trip id="northRight___northLeft_380" type="car" from="northRight___intersectionNE" to="intersectionNW___northLeft" depart="380" />    <trip id="westTop___southLeft_380" type="car" from="westTop___intersectionNW" to="intersectionSW___southLeft" depart="380" />    <trip id="northLeft___eastTop_384" type="car" from="northLeft___intersectionNW" to="intersectionNE___eastTop" depart="384" />    <trip id="eastTop___westTop_385" type="car" from="eastTop___intersectionNE" to="intersectionNW___westTop" depart="385" />    <trip id="eastTop___northRight_387" type="car" from="eastTop___intersectionNE" to="intersectionNE___northRight" depart="387" />    <trip id="eastTop___eastBottom_392" type="car" from="eastTop___intersectionNE" to="intersectionSE___eastBottom" depart="392" />    <trip id="northLeft___northRight_392" type="car" from="northLeft___intersectionNW" to="intersectionNE___northRight" depart="392" />    <trip id="northRight___northLeft_393" type="car" from="northRight___intersectionNE" to="intersectionNW___northLeft" depart="393" />    <trip id="southRight___westBottom_401" type="car" from="southRight___intersectionSE" to="intersectionSW___westBottom" depart="401" />    <trip id="northLeft___eastBottom_402" type="car" from="northLeft___intersectionNW" to="intersectionSE___eastBottom" depart="402" />    <trip id="southLeft___eastTop_409" type="car" from="southLeft___intersectionSW" to="intersectionNE___eastTop" depart="409" />    <trip id="westTop___southRight_409" type="car" from="westTop___intersectionNW" to="intersectionSE___southRight" depart="409" />    <trip id="eastBottom___northLeft_410" type="car" from="eastBottom___intersectionSE" to="intersectionNW___northLeft" depart="410" />    <trip id="northLeft___eastBottom_410" type="car" from="northLeft___intersectionNW" to="intersectionSE___eastBottom" depart="410" />    <trip id="northLeft___southLeft_413" type="car" from="northLeft___intersectionNW" to="intersectionSW___southLeft" depart="413" />    <trip id="eastBottom___northLeft_416" type="car" from="eastBottom___intersectionSE" to="intersectionNW___northLeft" depart="416" />    <trip id="southRight___northRight_416" type="car" from="southRight___intersectionSE" to="intersectionNE___northRight" depart="416" />    <trip id="southRight___westBottom_418" type="car" from="southRight___intersectionSE" to="intersectionSW___westBottom" depart="418" />    <trip id="southRight___westTop_419" type="car" from="southRight___intersectionSE" to="intersectionNW___westTop" depart="419" />    <trip id="eastTop___southRight_425" type="car" from="eastTop___intersectionNE" to="intersectionSE___southRight" depart="425" />    <trip id="eastTop___southRight_426" type="car" from="eastTop___intersectionNE" to="intersectionSE___southRight" depart="426" />    <trip id="westBottom___westTop_427" type="car" from="westBottom___intersectionSW" to="intersectionNW___westTop" depart="427" />    <trip id="eastTop___southRight_429" type="car" from="eastTop___intersectionNE" to="intersectionSE___southRight" depart="429" />    <trip id="northLeft___westTop_429" type="car" from="northLeft___intersectionNW" to="intersectionNW___westTop" depart="429" />    <trip id="westBottom___westTop_429" type="car" from="westBottom___intersectionSW" to="intersectionNW___westTop" depart="429" />    <trip id="southLeft___northRight_430" type="car" from="southLeft___intersectionSW" to="intersectionNE___northRight" depart="430" />    <trip id="southRight___westBottom_430" type="car" from="southRight___intersectionSE" to="intersectionSW___westBottom" depart="430" />    <trip id="eastBottom___westTop_433" type="car" from="eastBottom___intersectionSE" to="intersectionNW___westTop" depart="433" />    <trip id="eastBottom___northRight_434" type="car" from="eastBottom___intersectionSE" to="intersectionNE___northRight" depart="434" />    <trip id="westBottom___northLeft_434" type="car" from="westBottom___intersectionSW" to="intersectionNW___northLeft" depart="434" />    <trip id="eastBottom___northLeft_435" type="car" from="eastBottom___intersectionSE" to="intersectionNW___northLeft" depart="435" />    <trip id="southLeft___northRight_438" type="car" from="southLeft___intersectionSW" to="intersectionNE___northRight" depart="438" />    <trip id="westBottom___eastTop_438" type="car" from="westBottom___intersectionSW" to="intersectionNE___eastTop" depart="438" />    <trip id="northRight___southRight_439" type="car" from="northRight___intersectionNE" to="intersectionSE___southRight" depart="439" />    <trip id="westBottom___eastTop_440" type="car" from="westBottom___intersectionSW" to="intersectionNE___eastTop" depart="440" />    <trip id="northRight___westTop_442" type="car" from="northRight___intersectionNE" to="intersectionNW___westTop" depart="442" />    <trip id="eastTop___westTop_444" type="car" from="eastTop___intersectionNE" to="intersectionNW___westTop" depart="444" />    <trip id="southLeft___eastBottom_450" type="car" from="southLeft___intersectionSW" to="intersectionSE___eastBottom" depart="450" />    <trip id="northLeft___eastBottom_451" type="car" from="northLeft___intersectionNW" to="intersectionSE___eastBottom" depart="451" />    <trip id="southLeft___eastTop_453" type="car" from="southLeft___intersectionSW" to="intersectionNE___eastTop" depart="453" />    <trip id="westTop___northRight_454" type="car" from="westTop___intersectionNW" to="intersectionNE___northRight" depart="454" />    <trip id="westTop___eastTop_455" type="car" from="westTop___intersectionNW" to="intersectionNE___eastTop" depart="455" />    <trip id="eastBottom___westBottom_456" type="car" from="eastBottom___intersectionSE" to="intersectionSW___westBottom" depart="456" />    <trip id="northLeft___southLeft_459" type="car" from="northLeft___intersectionNW" to="intersectionSW___southLeft" depart="459" />    <trip id="eastTop___southLeft_460" type="car" from="eastTop___intersectionNE" to="intersectionSW___southLeft" depart="460" />    <trip id="northLeft___westBottom_463" type="car" from="northLeft___intersectionNW" to="intersectionSW___westBottom" depart="463" />    <trip id="westTop___northRight_465" type="car" from="westTop___intersectionNW" to="intersectionNE___northRight" depart="465" />    <trip id="northRight___southLeft_466" type="car" f