
        <routes>
            <vType id="car" accel="0.8" decel="4.5" sigma="0.5" length="5" minGap="2.5" maxSpeed="15" guiShape="passenger"/>
            <trip id="northRight___westTop_0" type="car" from="northRight___intersectionNE" to="intersectionNW___westTop" depart="0" />    <trip id="westTop___northRight_3" type="car" from="westTop___intersectionNW" to="intersectionNE___northRight" depart="3" />    <trip id="northLeft___northRight_5" type="car" from="northLeft___intersectionNW" to="intersectionNE___northRight" depart="5" />    <trip id="westTop___northLeft_6" type="car" from="westTop___intersectionNW" to="intersectionNW___northLeft" depart="6" />    <trip id="northRight___eastBottom_8" type="car" from="northRight___intersectionNE" to="intersectionSE___eastBottom" depart="8" />    <trip id="northRight___southLeft_14" type="car" from="northRight___intersectionNE" to="intersectionSW___southLeft" depart="14" />    <trip id="eastTop___southLeft_15" type="car" from="eastTop___intersectionNE" to="intersectionSW___southLeft" depart="15" />    <trip id="northLeft___northRight_21" type="car" from="northLeft___intersectionNW" to="intersectionNE___northRight" depart="21" />    <trip id="westBottom___southLeft_27" type="car" from="westBottom___intersectionSW" to="intersectionSW___southLeft" depart="27" />    <trip id="eastTop___northLeft_28" type="car" from="eastTop___intersectionNE" to="intersectionNW___northLeft" depart="28" />    <trip id="southRight___southLeft_28" type="car" from="southRight___intersectionSE" to="intersectionSW___southLeft" depart="28" />    <trip id="westBottom___southLeft_32" type="car" from="westBottom___intersectionSW" to="intersectionSW___southLeft" depart="32" />    <trip id="northLeft___eastTop_35" type="car" from="northLeft___intersectionNW" to="intersectionNE___eastTop" depart="35" />    <trip id="northRight___eastTop_36" type="car" from="northRight___intersectionNE" to="intersectionNE___eastTop" depart="36" />    <trip id="southLeft___eastBottom_36" type="car" from="southLeft___intersectionSW" to="intersectionSE___eastBottom" depart="36" />    <trip id="westTop___northLeft_38" type="car" from="westTop___intersectionNW" to="intersectionNW___northLeft" depart="38" />    <trip id="northRight___southLeft_39" type="car" from="northRight___intersectionNE" to="intersectionSW___southLeft" depart="39" />    <trip id="northLeft___northRight_42" type="car" from="northLeft___intersectionNW" to="intersectionNE___northRight" depart="42" />    <trip id="westBottom___westTop_42" type="car" from="westBottom___intersectionSW" to="intersectionNW___westTop" depart="42" />    <trip id="southLeft___westBottom_44" type="car" from="southLeft___intersectionSW" to="intersectionSW___westBottom" depart="44" />    <trip id="eastBottom___westTop_45" type="car" from="eastBottom___intersectionSE" to="intersectionNW___westTop" depart="45" />    <trip id="westTop___eastBottom_45" type="car" from="westTop___intersectionNW" to="intersectionSE___eastBottom" depart="45" />    <trip id="southLeft___northRight_51" type="car" from="southLeft___intersectionSW" to="intersectionNE___northRight" depart="51" />    <trip id="eastBottom___westBottom_54" type="car" from="eastBottom___intersectionSE" to="intersectionSW___westBottom" depart="54" />    <trip id="westBottom___westTop_54" type="car" from="westBottom___intersectionSW" to="intersectionNW___westTop" depart="54" />    <trip id="northRight___westTop_57" type="car" from="northRight___intersectionNE" to="intersectionNW___westTop" depart="57" />    <trip id="westTop___eastTop_58" type="car" from="westTop___intersectionNW" to="intersectionNE___eastTop" depart="58" />    <trip id="northLeft___westTop_59" type="car" from="northLeft___intersectionNW" to="intersectionNW___westTop" depart="59" />    <trip id="eastBottom___westTop_61" type="car" from="eastBottom___intersectionSE" to="intersectionNW___westTop" depart="61" />    <trip id="southLeft___westBottom_61" type="car" from="southLeft___intersectionSW" to="intersectionSW___westBottom" depart="61" />    <trip id="westTop___southRight_62" type="car" from="westTop___intersectionNW" to="intersectionSE___southRight" depart="62" />    <trip id="eastBottom___westTop_65" type="car" from="eastBottom___intersectionSE" to="intersectionNW___westTop" depart="65" />    <trip id="eastBottom___northRight_68" type="car" from="eastBottom___intersectionSE" to="intersectionNE___northRight" depart="68" />    <trip id="eastTop___westTop_74" type="car" from="eastTop___intersectionNE" to="intersectionNW___westTop" depart="74" />    <trip id="southRight___westBottom_76" type="car" from="southRight___intersectionSE" to="intersectionSW___westBottom" depart="76" />    <trip id="westBottom___eastTop_80" type="car" from="westBottom___intersectionSW" to="intersectionNE___eastTop" depart="80" />    <trip id="westTop___southRight_82" type="car" from="westTop___intersectionNW" to="intersectionSE___southRight" depart="82" />    <trip id="northLeft___southLeft_84" type="car" from="northLeft___intersectionNW" to="intersectionSW___southLeft" depart="84" />    <trip id="southLeft___westTop_85" type="car" from="southLeft___intersectionSW" to="intersectionNW___westTop" depart="85" />    <trip id="westBottom___eastTop_87" type="car" from="westBottom___intersectionSW" to="intersectionNE___eastTop" depart="87" />    <trip id="westBottom___northLeft_92" type="car" from="westBottom___intersectionSW" to="intersectionNW___northLeft" depart="92" />    <trip id="westTop___eastBottom_93" type="car" from="westTop___intersectionNW" to="intersectionSE___eastBottom" depart="93" />    <trip id="southLeft___eastBottom_94" type="car" from="southLeft___intersectionSW" to="intersectionSE___eastBottom" depart="94" />    <trip id="eastTop___southLeft_96" type="car" from="eastTop___intersectionNE" to="intersectionSW___southLeft" depart="96" />    <trip id="westBottom___southRight_97" type="car" from="westBottom___intersectionSW" to="intersectionSE___southRight" depart="97" />    <trip id="westTop___eastBottom_98" type="car" from="westTop___intersectionNW" to="intersectionSE___eastBottom" depart="98" />    <trip id="eastBottom___westBottom_102" type="car" from="eastBottom___intersectionSE" to="intersectionSW___westBottom" depart="102" />    <trip id="westBottom___southLeft_102" type="car" from="westBottom___intersectionSW" to="intersectionSW___southLeft" depart="102" />    <trip id="northRight___southRight_103" type="car" from="northRight___intersectionNE" to="intersectionSE___southRight" depart="103" />    <trip id="northLeft___southRight_109" type="car" from="northLeft___intersectionNW" to="intersectionSE___southRight" depart="109" />    <trip id="eastTop___southRight_110" type="car" from="eastTop___intersectionNE" to="intersectionSE___southRight" depart="110" />    <trip id="northLeft___eastTop_116" type="car" from="northLeft___intersectionNW" to="intersectionNE___eastTop" depart="116" />    <trip id="northLeft___eastBottom_117" type="car" from="northLeft___intersectionNW" to="intersectionSE___eastBottom" depart="117" />    <trip id="southRight___eastBottom_117" type="car" from="southRight___intersectionSE" to="intersectionSE___eastBottom" depart="117" />    <trip id="northRight___northLeft_120" type="car" from="northRight___intersectionNE" to="intersectionNW___northLeft" depart="120" />    <trip id="westBottom___westTop_120" type="car" from="westBottom___intersectionSW" to="intersectionNW___westTop" depart="120" />    <trip id="southLeft___northLeft_125" type="car" from="southLeft___intersectionSW" to="intersectionNW___northLeft" depart="125" />    <trip id="westBottom___northLeft_125" type="car" from="westBottom___intersectionSW" to="intersectionNW___northLeft" depart="125" />    <trip id="westTop___eastBottom_126" type="car" from="westTop___intersectionNW" to="intersectionSE___eastBottom" depart="126" />    <trip id="westBottom___northLeft_127" type="car" from="westBottom___intersectionSW" to="intersectionNW___northLeft" depart="127" />    <trip id="southLeft___westBottom_128" type="car" from="southLeft___intersectionSW" to="intersectionSW___westBottom" depart="128" />    <trip id="eastTop___southRight_133" type="car" from="eastTop___intersectionNE" to="intersectionSE___southRight" depart="133" />    <trip id="eastBottom___southLeft_137" type="car" from="eastBottom___intersectionSE" to="intersectionSW___southLeft" depart="137" />    <trip id="westTop___northLeft_139" type="car" from="westTop___intersectionNW" to="intersectionNW___northLeft" depart="139" />    <trip id="northRight___eastBottom_144" type="car" from="northRight___intersectionNE" to="intersectionSE___eastBottom" depart="144" />    <trip id="southLeft___northLeft_145" type="car" from="southLeft___intersectionSW" to="intersectionNW___northLeft" depart="145" />    <trip id="westBottom___eastTop_146" type="car" from="westBottom___intersectionSW" to="intersectionNE___eastTop" depart="146" />    <trip id="southLeft___eastBottom_147" type="car" from="southLeft___intersectionSW" to="intersectionSE___eastBottom" depart="147" />    <trip id="southLeft___westBottom_150" type="car" from="southLeft___intersectionSW" to="intersectionSW___westBottom" depart="150" />    <trip id="westTop___southLeft_152" type="car" from="westTop___intersectionNW" to="intersectionSW___southLeft" depart="152" />    <trip id="eastTop___southRight_155" type="car" from="eastTop___intersectionNE" to="intersectionSE___southRight" depart="155" />    <trip id="westTop___northRight_157" type="car" from="westTop___intersectionNW" to="intersectionNE___northRight" depart="157" />    <trip id="westBottom___northRight_160" type="car" from="westBottom___intersectionSW" to="intersectionNE___northRight" depart="160" />    <trip id="northRight___eastBottom_165" type="car" from="northRight___intersectionNE" to="intersectionSE___eastBottom" depart="165" />    <trip id="westTop___northLeft_165" type="car" from="westTop___intersectionNW" to="intersectionNW___northLeft" depart="165" />    <trip id="westBottom___northLeft_166" type="car" from="westBottom___intersectionSW" to="intersectionNW___northLeft" depart="166" />    <trip id="eastBottom___northLeft_169" type="car" from="eastBottom___intersectionSE" to="intersectionNW___northLeft" depart="169" />    <trip id="eastTop___eastBottom_171" type="car" from="eastTop___intersectionNE" to="intersectionSE___eastBottom" depart="171" />    <trip id="westTop___northLeft_171" type="car" from="westTop___intersectionNW" to="intersectionNW___northLeft" depart="171" />    <trip id="northLeft___eastTop_175" type="car" from="northLeft___intersectionNW" to="intersectionNE___eastTop" depart="175" />    <trip id="northLeft___northRight_179" type="car" from="northLeft___intersectionNW" to="intersectionNE___northRight" depart="179" />    <trip id="eastTop___northLeft_181" type="car" from="eastTop___intersectionNE" to="intersectionNW___northLeft" depart="181" />    <trip id="westBottom___westTop_184" type="car" from="westBottom___intersectionSW" to="intersectionNW___westTop" depart="184" />    <trip id="westBottom___southLeft_185" type="car" from="westBottom___intersectionSW" to="intersectionSW___southLeft" depart="185" />    <trip id="northRight___northLeft_188" type="car" from="northRight___intersectionNE" to="intersectionNW___northLeft" depart="188" />    <trip id="southLeft___northRight_192" type="car" from="southLeft___intersectionSW" to="intersectionNE___northRight" depart="192" />    <trip id="eastBottom___westBottom_193" type="car" from="eastBottom___intersectionSE" to="intersectionSW___westBottom" depart="193" />    <trip id="northRight___westTop_193" type="car" from="northRight___intersectionNE" to="intersectionNW___westTop" depart="193" />    <trip id="eastTop___southRight_194" type="car" from="eastTop___intersectionNE" to="intersectionSE___southRight" depart="194" />    <trip id="northRight___westBottom_194" type="car" from="northRight___intersectionNE" to="intersectionSW___westBottom" depart="194" />    <trip id="southRight___southLeft_195" type="car" from="southRight___intersectionSE" to="intersectionSW___southLeft" depart="195" />    <trip id="northLeft___southLeft_196" type="car" from="northLeft___intersectionNW" to="intersectionSW___southLeft" depart="196" />    <trip id="northRight___northLeft_196" type="car" from="northRight___intersectionNE" to="intersectionNW___northLeft" depart="196" />    <trip id="westTop___westBottom_197" type="car" from="westTop___intersectionNW" to="intersectionSW___westBottom" depart="197" />    <trip id="northLeft___westBottom_200" type="car" from="northLeft___intersectionNW" to="intersectionSW___westBottom" depart="200" />    <trip id="eastTop___northLeft_201" type="car" from="eastTop___intersectionNE" to="intersectionNW___northLeft" depart="201" />    <trip id="southLeft___westBottom_201" type="car" from="southLeft___intersectionSW" to="intersectionSW___westBottom" depart="201" />    <trip id="westBottom___eastTop_202" type="car" from="westBottom___intersectionSW" to="intersectionNE___eastTop" depart="202" />    <trip id="southRight___northRight_207" type="car" from="southRight___intersectionSE" to="intersectionNE___northRight" depart="207" />    <trip id="northRight___westTop_208" type="car" from="northRight___intersectionNE" to="intersectionNW___westTop" depart="208" />    <trip id="eastBottom___westTop_210" type="car" from="eastBottom___intersectionSE" to="intersectionNW___westTop" depart="210" />    <trip id="eastTop___southRight_212" type="car" from="eastTop___intersectionNE" to="intersectionSE___southRight" depart="212" />    <trip id="westBottom___eastBottom_213" type="car" from="westBottom___intersectionSW" to="intersectionSE___eastBottom" depart="213" />    <trip id="eastTop___southRight_216" type="car" from="eastTop___intersectionNE" to="intersectionSE___southRight" depart="216" />    <trip id="southLeft___eastTop_218" type="car" from="southLeft___intersectionSW" to="intersectionNE___eastTop" depart="218" />    <trip id="eastBottom___westBottom_221" type="car" from="eastBottom___intersectionSE" to="intersectionSW___westBottom" depart="221" />    <trip id="eastTop___southLeft_221" type="car" from="eastTop___intersectionNE" to="intersectionSW___southLeft" depart="221" />    <trip id="southRight___northLeft_221" type="car" from="southRight___intersectionSE" to="intersectionNW___northLeft" depart="221" />    <trip id="southRight___northLeft_222" type="car" from="southRight___intersectionSE" to="intersectionNW___northLeft" depart="222" />    <trip id="eastBottom___eastTop_225" type="car" from="eastBottom___intersectionSE" to="intersectionNE___eastTop" depart="225" />    <trip id="southRight___eastBottom_225" type="car" from="southRight___intersectionSE" to="intersectionSE___eastBottom" depart="225" />    <trip id="southLeft___westBottom_226" type="car" from="southLeft___intersectionSW" to="intersectionSW___westBottom" depart="226" />    <trip id="southRight___westBottom_229" type="car" from="southRight___intersectionSE" to="intersectionSW___westBottom" depart="229" />    <trip id="westBottom___westTop_235" type="car" from="westBottom___intersectionSW" to="intersectionNW___westTop" depart="235" />    <trip id="southRight___southLeft_237" type="car" from="southRight___intersectionSE" to="intersectionSW___southLeft" depart="237" />    <trip id="northRight___northLeft_243" type="car" from="northRight___intersectionNE" to="intersectionNW___northLeft" depart="243" />    <trip id="northRight___westTop_246" type="car" from="northRight___intersectionNE" to="intersectionNW___westTop" depart="246" />    <trip id="westBottom___eastTop_248" type="car" from="westBottom___intersectionSW" to="intersectionNE___eastTop" depart="248" />    <trip id="eastTop___southRight_251" type="car" from="eastTop___intersectionNE" to="intersectionSE___southRight" depart="251" />    <trip id="southRight___northLeft_251" type="car" from="southRight___intersectionSE" to="intersectionNW___northLeft" depart="251" />    <trip id="northRight___westTop_253" type="car" from="northRight___intersectionNE" to="intersectionNW___westTop" depart="253" />    <trip id="southLeft___southRight_255" type="car" from="southLeft___intersectionSW" to="intersectionSE___southRight" depart="255" />    <trip id="eastBottom___northLeft_258" type="car" from="eastBottom___intersectionSE" to="intersectionNW___northLeft" depart="258" />    <trip id="westTop___northRight_258" type="car" from="westTop___intersectionNW" to="intersectionNE___northRight" depart="258" />    <trip id="eastTop___northRight_259" type="car" from="eastTop___intersectionNE" to="intersectionNE___northRight" depart="259" />    <trip id="northRight___southRight_259" type="car" from="northRight___intersectionNE" to="intersectionSE___southRight" depart="259" />    <trip id="southLeft___eastTop_259" type="car" from="southLeft___intersectionSW" to="intersectionNE___eastTop" depart="259" />    <trip id="northLeft___southRight_260" type="car" from="northLeft___intersectionNW" to="intersectionSE___southRight" depart="260" />    <trip id="eastBottom___southRight_261" type="car" from="eastBottom___intersectionSE" to="intersectionSE___southRight" depart="261" />    <trip id="southLeft___southRight_263" type="car" from="southLeft___intersectionSW" to="intersectionSE___southRight" depart="263" />    <trip id="westTop___southLeft_264" type="car" from="westTop___intersectionNW" to="intersectionSW___southLeft" depart="264" />    <trip id="northRight___westBottom_271" type="car" from="northRight___intersectionNE" to="intersectionSW___westBottom" depart="271" />    <trip id="northLeft___westBottom_272" type="car" from="northLeft___intersectionNW" to="intersectionSW___westBottom" depart="272" />    <trip id="eastBottom___southLeft_274" type="car" from="eastBottom___intersectionSE" to="intersectionSW___southLeft" depart="274" />    <trip id="westTop___southLeft_278" type="car" from="westTop___intersectionNW" to="intersectionSW___southLeft" depart="278" />    <trip id="southRight___eastBottom_283" type="car" from="southRight___intersectionSE" to="intersectionSE___eastBottom" depart="283" />    <trip id="westBottom___westTop_283" type="car" from="westBottom___intersectionSW" to="intersectionNW___westTop" depart="283" />    <trip id="southRight___westBottom_284" type="car" from="southRight___intersectionSE" to="intersectionSW___westBottom" depart="284" />    <trip id="westTop___westBottom_284" type="car" from="westTop___intersectionNW" to="intersectionSW___westBottom" depart="284" />    <trip id="southRight___northLeft_286" type="car" from="southRight___intersectionSE" to="intersectionNW___northLeft" depart="286" />    <trip id="eastTop___westTop_291" type="car" from="eastTop___intersectionNE" to="intersectionNW___westTop" depart="291" />    <trip id="westTop___southRight_295" type="car" from="westTop___intersectionNW" to="intersectionSE___southRight" depart="295" />    <trip id="westTop___eastTop_302" type="car" from="westTop___intersectionNW" to="intersectionNE___eastTop" depart="302" />    <trip id="southLeft___eastBottom_306" type="car" from="southLeft___intersectionSW" to="intersectionSE___eastBottom" depart="306" />    <trip id="eastTop___northRight_309" type="car" from="eastTop___intersectionNE" to="intersectionNE___northRight" depart="309" />    <trip id="eastTop___northLeft_310" type="car" from="eastTop___intersectionNE" to="intersectionNW___northLeft" depart="310" />    <trip id="eastBottom___southLeft_311" type="car" from="eastBottom___intersectionSE" to="intersectionSW___southLeft" depart="311" />    <trip id="southRight___southLeft_311" type="car" from="southRight___intersectionSE" to="intersectionSW___southLeft" depart="311" />    <trip id="eastBottom___westTop_317" type="car" from="eastBottom___intersectionSE" to="intersectionNW___westTop" depart="317" />    <trip id="northRight___westBottom_317" type="car" from="northRight___intersectionNE" to="intersectionSW___westBottom" depart="317" />    <trip id="southRight___eastBottom_317" type="car" from="southRight___intersectionSE" to="intersectionSE___eastBottom" depart="317" />    <trip id="southLeft___northLeft_318" type="car" from="southLeft___intersectionSW" to="intersectionNW___northLeft" depart="318" />    <trip id="southRight___northRight_318" type="car" from="southRight___intersectionSE" to="intersectionNE___northRight" depart="318" />    <trip id="westTop___eastBottom_318" type="car" from="westTop___intersectionNW" to="intersectionSE___eastBottom" depart="318" />    <trip id="westBottom___eastBottom_321" type="car" from="westBottom___intersectionSW" to="intersectionSE___eastBottom" depart="321" />    <trip id="southRight___westTop_327" type="car" from="southRight___intersectionSE" to="intersectionNW___westTop" depart="327" />    <trip id="southRight___westBottom_333" type="car" from="southRight___intersectionSE" to="intersectionSW___westBottom" depart="333" />    <trip id="southLeft___eastBottom_336" type="car" from="southLeft___intersectionSW" to="intersectionSE___eastBottom" depart="336" />    <trip id="northRight___westTop_337" type="car" from="northRight___intersectionNE" to="intersectionNW___westTop" depart="337" />    <trip id="northRight___southRight_340" type="car" from="northRight___intersectionNE" to="intersectionSE___southRight" depart="340" />    <trip id="eastTop___northRight_341" type="car" from="eastTop___intersectionNE" to="intersectionNE___northRight" depart="341" />    <trip id="northLeft___eastBottom_341" type="car" from="northLeft___intersectionNW" to="intersectionSE___eastBottom" depart="341" />    <trip id="southLeft___eastBottom_341" type="car" from="southLeft___intersectionSW" to="intersectionSE___eastBottom" depart="341" />    <trip id="westBottom___southRight_344" type="car" from="westBottom___intersectionSW" to="intersectionSE___southRight" depart="344" />    <trip id="eastBottom___northRight_345" type="car" from="eastBottom___intersectionSE" to="intersectionNE___northRight" depart="345" />    <trip id="eastBottom___northRight_347" type="car" from="eastBottom___intersectionSE" to="intersectionNE___northRight" depart="347" />    <trip id="eastBottom___northLeft_348" type="car" from="eastBottom___intersectionSE" to="intersectionNW___northLeft" depart="348" />    <trip id="westBottom___northLeft_348" type="car" from="westBottom___intersectionSW" to="intersectionNW___northLeft" depart="348" />    <trip id="northLeft___eastTop_356" type="car" from="northLeft___intersectionNW" to="intersectionNE___eastTop" depart="356" />    <trip id="northLeft___eastTop_357" type="car" from="northLeft___intersectionNW" to="intersectionNE___eastTop" depart="357" />    <trip id="southLeft___eastBottom_358" type="car" from="southLeft___intersectionSW" to="intersectionSE___eastBottom" depart="358" />    <trip id="eastTop___southLeft_359" type="car" from="eastTop___intersectionNE" to="intersectionSW___southLeft" depart="359" />    <trip id="northRight___eastTop_359" type="car" from="northRight___intersectionNE" to="intersectionNE___eastTop" depart="359" />    <trip id="northRight___southLeft_370" type="car" from="northRight___intersectionNE" to="intersectionSW___southLeft" depart="370" />    <trip id="northRight___westBottom_371" type="car" from="northRight___intersectionNE" to="intersectionSW___westBottom" depart="371" />    <trip id="westTop___eastTop_372" type="car" from="westTop___intersectionNW" to="intersectionNE___eastTop" depart="372" />    <trip id="northRight___southRight_373" type="car" from="northRight___intersectionNE" to="intersectionSE___southRight" depart="373" />    <trip id="northRight___eastTop_375" type="car" from="northRight___intersectionNE" to="intersectionNE___eastTop" depart="375" />    <trip id="westBottom___southLeft_377" type="car" from="westBottom___intersectionSW" to="intersectionSW___southLeft" depart="377" />    <trip id="northRight___southRight_380" type="car" from="northRight___intersectionNE" to="intersectionSE___southRight" depart="380" />    <trip id="southRight___eastBottom_382" type="car" from="southRight___intersectionSE" to="intersectionSE___eastBottom" depart="382" />    <trip id="northRight___northLeft_384" type="car" from="northRight___intersectionNE" to="intersectionNW___northLeft" depart="384" />    <trip id="westBottom___southLeft_385" type="car" from="westBottom___intersectionSW" to="intersectionSW___southLeft" depart="385" />    <trip id="southLeft___eastTop_388" type="car" from="southLeft___intersectionSW" to="intersectionNE___eastTop" depart="388" />    <trip id="eastBottom___eastTop_391" type="car" from="eastBottom___intersectionSE" to="intersectionNE___eastTop" depart="391" />    <trip id="eastTop___northRight_392" type="car" from="eastTop___intersectionNE" to="intersectionNE___northRight" depart="392" />    <trip id="southLeft___southRight_393" type="car" from="southLeft___intersectionSW" to="intersectionSE___southRight" depart="393" />    <trip id="eastTop___westBottom_396" type="car" from="eastTop___intersectionNE" to="intersectionSW___westBottom" depart="396" />    <trip id="westBottom___eastBottom_398" type="car" from="westBottom___intersectionSW" to="intersectionSE___eastBottom" depart="398" />    <trip id="southLeft___eastTop_400" type="car" from="southLeft___intersectionSW" to="intersectionNE___eastTop" depart="400" />    <trip id="southLeft___eastBottom_403" type="car" from="southLeft___intersectionSW" to="intersectionSE___eastBottom" depart="403" />    <trip id="westTop___southLeft_404" type="car" from="westTop___intersectionNW" to="intersectionSW___southLeft" depart="404" />    <trip id="eastBottom___southLeft_409" type="car" from="eastBottom___intersectionSE" to="intersectionSW___southLeft" depart="409" />    <trip id="westTop___southRight_409" type="car" from="westTop___intersectionNW" to="intersectionSE___southRight" depart="409" />    <trip id="westTop___northLeft_411" type="car" from="westTop___intersectionNW" to="intersectionNW___northLeft" depart="411" />    <trip id="eastTop___westBottom_416" type="car" from="eastTop___intersectionNE" to="intersectionSW___westBottom" depart="416" />    <trip id="eastTop___northLeft_419" type="car" from="eastTop___intersectionNE" to="intersectionNW___northLeft" depart="419" />    <trip id="northLeft___eastBottom_419" type="car" from="northLeft___intersectionNW" to="intersectionSE___eastBottom" depart="419" />    <trip id="eastTop___southRight_420" type="car" from="eastTop___intersectionNE" to="intersectionSE___southRight" depart="420" />    <trip id="southLeft___westTop_420" type="car" from="southLeft___intersectionSW" to="intersectionNW___westTop" depart="420" />    <trip id="northLeft___westBottom_423" type="car" from="northLeft___intersectionNW" to="intersectionSW___westBottom" depart="423" />    <trip id="westBottom___eastTop_423" type="car" from="westBottom___intersectionSW" to="intersectionNE___eastTop" depart="423" />    <trip id="northLeft___westTop_427" type="car" from="northLeft___intersectionNW" to="intersectionNW___westTop" depart="427" />    <trip id="southRight___northRight_427" type="car" from="southRight___intersectionSE" to="intersectionNE___northRight" depart="427" />    <trip id="westTop___northLeft_430" type="car" from="westTop___intersectionNW" to="intersectionNW___northLeft" depart="430" />    <trip id="southRight___northLeft_431" type="car" from="southRight___intersectionSE" to="intersectionNW___northLeft" depart="431" />    <trip id="westBottom___eastTop_431" type="car" from="westBottom___intersectionSW" to="intersectionNE___eastTop" depart="431" />    <trip id="westTop___northLeft_432" type="car" from="westTop___intersectionNW" to="intersectionNW___northLeft" depart="432" />    <trip id="northRight___westTop_433" type="car" from="northRight___intersectionNE" to="intersectionNW___westTop" depart="433" />    <trip id="westBottom___eastTop_433" type="car" from="westBottom___intersectionSW" to="intersectionNE___eastTop" depart="433" />    <trip id="westBottom___eastBottom_435" type="car" from="westBottom___intersectionSW" to="intersectionSE___eastBottom" depart="435" />    <trip id="northLeft___eastBottom_436" type="car" from="northLeft___intersectionNW" to="intersectionSE___eastBottom" depart="436" />    <trip id="southRight___westBottom_438" type="car" from="southRight___intersectionSE" to="intersectionSW___westBottom" depart="438" />    <trip id="eastTop___southLeft_440" type="car" from="eastTop___intersectionNE" to="intersectionSW___southLeft" depart="440" />    <trip id="northRight___westTop_445" type="car" from="northRight___intersectionNE" to="intersectionNW___westTop" depart="445" />    <trip id="westBottom___eastBottom_446" type="car" from="westBottom___intersectionSW" to="intersectionSE___eastBottom" depart="446" />    <trip id="southLeft___northLeft_450" type="car" from="southLeft___intersectionSW" to="intersectionNW___northLeft" depart="450" />    <trip id="northLeft___westTop_453" type="car" from="northLeft___intersectionNW" to="intersectionNW___westTop" depart="453" />    <trip id="southRight___southLeft_455" type="car" from="southRight___intersectionSE" to="intersectionSW___southLeft" depart="455" />    <trip id="eastTop___westBottom_456" type="car" from="eastTop___intersectionNE" to="intersectionSW___westBottom" depart="456" />    <trip id="westTop___southRight_457" type="car" from="westTop___intersectionNW" to="intersectionSE___southRight" depart="457" />    <trip id="southRight___northLeft_458" type="car" from="southRight___intersectionSE" to="intersectionNW___northLeft" depart="458" />    <trip id="northLeft___southRight_464" type="car" from="northLeft___intersectionNW" to="intersectionSE___southRight" depart="464" />    <trip id="westTop___westBottom_464" type="car" from="westTop___intersectionNW" to="intersectionSW___westBottom" depart="464" />    <trip id="westBottom___northLeft_465" type="car" from="westBottom___intersectionSW" to="intersectionNW___northLeft" depart="465" />    <trip id="westBottom___northRigh