
        <routes>
            <vType id="car" accel="0.8" decel="4.5" sigma="0.5" length="5" minGap="2.5" maxSpeed="15" guiShape="passenger"/>
            <trip id="northRight___westBottom_1" type="car" from="northRight___intersectionNE" to="intersectionSW___westBottom" depart="1" />    <trip id="eastTop___southRight_7" type="car" from="eastTop___intersectionNE" to="intersectionSE___southRight" depart="7" />    <trip id="southRight___southLeft_8" type="car" from="southRight___intersectionSE" to="intersectionSW___southLeft" depart="8" />    <trip id="westTop___southLeft_9" type="car" from="westTop___intersectionNW" to="intersectionSW___southLeft" depart="9" />    <trip id="southRight___westTop_11" type="car" from="southRight___intersectionSE" to="intersectionNW___westTop" depart="11" />    <trip id="westTop___eastTop_11" type="car" from="westTop___intersectionNW" to="intersectionNE___eastTop" depart="11" />    <trip id="northLeft___southRight_14" type="car" from="northLeft___intersectionNW" to="intersectionSE___southRight" depart="14" />    <trip id="northLeft___westBottom_19" type="car" from="northLeft___intersectionNW" to="intersectionSW___westBottom" depart="19" />    <trip id="eastTop___eastBottom_20" type="car" from="eastTop___intersectionNE" to="intersectionSE___eastBottom" depart="20" />    <trip id="eastBottom___eastTop_21" type="car" from="eastBottom___intersectionSE" to="intersectionNE___eastTop" depart="21" />    <trip id="southRight___eastBottom_24" type="car" from="southRight___intersectionSE" to="intersectionSE___eastBottom" depart="24" />    <trip id="westTop___northRight_29" type="car" from="westTop___intersectionNW" to="intersectionNE___northRight" depart="29" />    <trip id="eastTop___northRight_32" type="car" from="eastTop___intersectionNE" to="intersectionNE___northRight" depart="32" />    <trip id="southLeft___eastTop_35" type="car" from="southLeft___intersectionSW" to="intersectionNE___eastTop" depart="35" />    <trip id="southRight___westBottom_37" type="car" from="southRight___intersectionSE" to="intersectionSW___westBottom" depart="37" />    <trip id="northRight___southLeft_41" type="car" from="northRight___intersectionNE" to="intersectionSW___southLeft" depart="41" />    <trip id="westTop___northRight_41" type="car" from="westTop___intersectionNW" to="intersectionNE___northRight" depart="41" />    <trip id="westTop___eastBottom_42" type="car" from="westTop___intersectionNW" to="intersectionSE___eastBottom" depart="42" />    <trip id="northRight___westBottom_43" type="car" from="northRight___intersectionNE" to="intersectionSW___westBottom" depart="43" />    <trip id="northRight___southRight_44" type="car" from="northRight___intersectionNE" to="intersectionSE___southRight" depart="44" />    <trip id="eastTop___westTop_45" type="car" from="eastTop___intersectionNE" to="intersectionNW___westTop" depart="45" />    <trip id="southRight___eastBottom_45" type="car" from="southRight___intersectionSE" to="intersectionSE___eastBottom" depart="45" />    <trip id="westTop___northLeft_45" type="car" from="westTop___intersectionNW" to="intersectionNW___northLeft" depart="45" />    <trip id="westBottom___northRight_46" type="car" from="westBottom___intersectionSW" to="intersectionNE___northRight" depart="46" />    <trip id="westBottom___westTop_49" type="car" from="westBottom___intersectionSW" to="intersectionNW___westTop" depart="49" />    <trip id="eastBottom___northRight_50" type="car" from="eastBottom___intersectionSE" to="intersectionNE___northRight" depart="50" />    <trip id="southLeft___northLeft_51" type="car" from="southLeft___intersectionSW" to="intersectionNW___northLeft" depart="51" />    <trip id="westTop___eastBottom_54" type="car" from="westTop___intersectionNW" to="intersectionSE___eastBottom" depart="54" />    <trip id="eastBottom___westTop_55" type="car" from="eastBottom___intersectionSE" to="intersectionNW___westTop" depart="55" />    <trip id="eastBottom___eastTop_56" type="car" from="eastBottom___intersectionSE" to="intersectionNE___eastTop" depart="56" />    <trip id="northRight___westTop_65" type="car" from="northRight___intersectionNE" to="intersectionNW___westTop" depart="65" />    <trip id="westBottom___southRight_66" type="car" from="westBottom___intersectionSW" to="intersectionSE___southRight" depart="66" />    <trip id="northLeft___northRight_69" type="car" from="northLeft___intersectionNW" to="intersectionNE___northRight" depart="69" />    <trip id="southRight___westBottom_69" type="car" from="southRight___intersectionSE" to="intersectionSW___westBottom" depart="69" />    <trip id="southRight___northRight_70" type="car" from="southRight___intersectionSE" to="intersectionNE___northRight" depart="70" />    <trip id="westTop___northRight_71" type="car" from="westTop___intersectionNW" to="intersectionNE___northRight" depart="71" />    <trip id="northRight___eastTop_76" type="car" from="northRight___intersectionNE" to="intersectionNE___eastTop" depart="76" />    <trip id="northRight___northLeft_80" type="car" from="northRight___intersectionNE" to="intersectionNW___northLeft" depart="80" />    <trip id="northRight___westTop_82" type="car" from="northRight___intersectionNE" to="intersectionNW___westTop" depart="82" />    <trip id="westBottom___northLeft_83" type="car" from="westBottom___intersectionSW" to="intersectionNW___northLeft" depart="83" />    <trip id="eastTop___northRight_84" type="car" from="eastTop___intersectionNE" to="intersectionNE___northRight" depart="84" />    <trip id="northRight___southRight_90" type="car" from="northRight___intersectionNE" to="intersectionSE___southRight" depart="90" />    <trip id="eastBottom___westTop_92" type="car" from="eastBottom___intersectionSE" to="intersectionNW___westTop" depart="92" />    <trip id="northLeft___southRight_93" type="car" from="northLeft___intersectionNW" to="intersectionSE___southRight" depart="93" />    <trip id="westBottom___southRight_94" type="car" from="westBottom___intersectionSW" to="intersectionSE___southRight" depart="94" />    <trip id="eastTop___westBottom_95" type="car" from="eastTop___intersectionNE" to="intersectionSW___westBottom" depart="95" />    <trip id="southLeft___westBottom_95" type="car" from="southLeft___intersectionSW" to="intersectionSW___westBottom" depart="95" />    <trip id="southRight___southLeft_95" type="car" from="southRight___intersectionSE" to="intersectionSW___southLeft" depart="95" />    <trip id="westBottom___northLeft_96" type="car" from="westBottom___intersectionSW" to="intersectionNW___northLeft" depart="96" />    <trip id="northLeft___westBottom_100" type="car" from="northLeft___intersectionNW" to="intersectionSW___westBottom" depart="100" />    <trip id="westBottom___eastBottom_101" type="car" from="westBottom___intersectionSW" to="intersectionSE___eastBottom" depart="101" />    <trip id="southRight___westBottom_102" type="car" from="southRight___intersectionSE" to="intersectionSW___westBottom" depart="102" />    <trip id="westTop___southLeft_102" type="car" from="westTop___intersectionNW" to="intersectionSW___southLeft" depart="102" />    <trip id="eastTop___southRight_103" type="car" from="eastTop___intersectionNE" to="intersectionSE___southRight" depart="103" />    <trip id="eastTop___southRight_104" type="car" from="eastTop___intersectionNE" to="intersectionSE___southRight" depart="104" />    <trip id="northRight___southRight_107" type="car" from="northRight___intersectionNE" to="intersectionSE___southRight" depart="107" />    <trip id="eastBottom___southRight_108" type="car" from="eastBottom___intersectionSE" to="intersectionSE___southRight" depart="108" />    <trip id="southRight___eastTop_113" type="car" from="southRight___intersectionSE" to="intersectionNE___eastTop" depart="113" />    <trip id="northLeft___southRight_117" type="car" from="northLeft___intersectionNW" to="intersectionSE___southRight" depart="117" />    <trip id="southLeft___northRight_117" type="car" from="southLeft___intersectionSW" to="intersectionNE___northRight" depart="117" />    <trip id="northLeft___westTop_119" type="car" from="northLeft___intersectionNW" to="intersectionNW___westTop" depart="119" />    <trip id="westTop___westBottom_126" type="car" from="westTop___intersectionNW" to="intersectionSW___westBottom" depart="126" />    <trip id="eastTop___westTop_131" type="car" from="eastTop___intersectionNE" to="intersectionNW___westTop" depart="131" />    <trip id="northLeft___eastBottom_143" type="car" from="northLeft___intersectionNW" to="intersectionSE___eastBottom" depart="143" />    <trip id="westBottom___southLeft_146" type="car" from="westBottom___intersectionSW" to="intersectionSW___southLeft" depart="146" />    <trip id="southRight___southLeft_151" type="car" from="southRight___intersectionSE" to="intersectionSW___southLeft" depart="151" />    <trip id="eastBottom___eastTop_154" type="car" from="eastBottom___intersectionSE" to="intersectionNE___eastTop" depart="154" />    <trip id="eastTop___southLeft_158" type="car" from="eastTop___intersectionNE" to="intersectionSW___southLeft" depart="158" />    <trip id="northLeft___westBottom_160" type="car" from="northLeft___intersectionNW" to="intersectionSW___westBottom" depart="160" />    <trip id="southLeft___northRight_160" type="car" from="southLeft___intersectionSW" to="intersectionNE___northRight" depart="160" />    <trip id="eastBottom___northRight_161" type="car" from="eastBottom___intersectionSE" to="intersectionNE___northRight" depart="161" />    <trip id="southLeft___westBottom_166" type="car" from="southLeft___intersectionSW" to="intersectionSW___westBottom" depart="166" />    <trip id="westBottom___southRight_166" type="car" from="westBottom___intersectionSW" to="intersectionSE___southRight" depart="166" />    <trip id="southLeft___northRight_167" type="car" from="southLeft___intersectionSW" to="intersectionNE___northRight" depart="167" />    <trip id="southLeft___southRight_168" type="car" from="southLeft___intersectionSW" to="intersectionSE___southRight" depart="168" />    <trip id="southRight___eastBottom_170" type="car" from="southRight___intersectionSE" to="intersectionSE___eastBottom" depart="170" />    <trip id="southLeft___eastBottom_178" type="car" from="southLeft___intersectionSW" to="intersectionSE___eastBottom" depart="178" />    <trip id="westBottom___southLeft_184" type="car" from="westBottom___intersectionSW" to="intersectionSW___southLeft" depart="184" />    <trip id="northRight___eastBottom_185" type="car" from="northRight___intersectionNE" to="intersectionSE___eastBottom" depart="185" />    <trip id="northLeft___westTop_187" type="car" from="northLeft___intersectionNW" to="intersectionNW___westTop" depart="187" />    <trip id="northRight___southLeft_188" type="car" from="northRight___intersectionNE" to="intersectionSW___southLeft" depart="188" />    <trip id="eastBottom___northLeft_189" type="car" from="eastBottom___intersectionSE" to="intersectionNW___northLeft" depart="189" />    <trip id="eastBottom___westBottom_190" type="car" from="eastBottom___intersectionSE" to="intersectionSW___westBottom" depart="190" />    <trip id="westBottom___northLeft_190" type="car" from="westBottom___intersectionSW" to="intersectionNW___northLeft" depart="190" />    <trip id="eastTop___westTop_193" type="car" from="eastTop___intersectionNE" to="intersectionNW___westTop" depart="193" />    <trip id="eastBottom___westBottom_194" type="car" from="eastBottom___intersectionSE" to="intersectionSW___westBottom" depart="194" />    <trip id="southLeft___eastTop_197" type="car" from="southLeft___intersectionSW" to="intersectionNE___eastTop" depart="197" />    <trip id="eastTop___southRight_198" type="car" from="eastTop___intersectionNE" to="intersectionSE___southRight" depart="198" />    <trip id="eastTop___southRight_204" type="car" from="eastTop___intersectionNE" to="intersectionSE___southRight" depart="204" />    <trip id="southLeft___westBottom_205" type="car" from="southLeft___intersectionSW" to="intersectionSW___westBottom" depart="205" />    <trip id="southRight___northRight_205" type="car" from="southRight___intersectionSE" to="intersectionNE___northRight" depart="205" />    <trip id="eastTop___southRight_206" type="car" from="eastTop___intersectionNE" to="intersectionSE___southRight" depart="206" />    <trip id="southLeft___northRight_206" type="car" from="southLeft___intersectionSW" to="intersectionNE___northRight" depart="206" />    <trip id="westBottom___southLeft_206" type="car" from="westBottom___intersectionSW" to="intersectionSW___southLeft" depart="206" />    <trip id="westBottom___eastTop_208" type="car" from="westBottom___intersectionSW" to="intersectionNE___eastTop" depart="208" />    <trip id="southLeft___eastBottom_209" type="car" from="southLeft___intersectionSW" to="intersectionSE___eastBottom" depart="209" />    <trip id="northLeft___westTop_212" type="car" from="northLeft___intersectionNW" to="intersectionNW___westTop" depart="212" />    <trip id="northRight___southLeft_212" type="car" from="northRight___intersectionNE" to="intersectionSW___southLeft" depart="212" />    <trip id="eastBottom___eastTop_214" type="car" from="eastBottom___intersectionSE" to="intersectionNE___eastTop" depart="214" />    <trip id="northRight___southLeft_218" type="car" from="northRight___intersectionNE" to="intersectionSW___southLeft" depart="218" />    <trip id="southLeft___westBottom_219" type="car" from="southLeft___intersectionSW" to="intersectionSW___westBottom" depart="219" />    <trip id="eastBottom___eastTop_222" type="car" from="eastBottom___intersectionSE" to="intersectionNE___eastTop" depart="222" />    <trip id="westBottom___eastBottom_224" type="car" from="westBottom___intersectionSW" to="intersectionSE___eastBottom" depart="224" />    <trip id="eastBottom___eastTop_226" type="car" from="eastBottom___intersectionSE" to="intersectionNE___eastTop" depart="226" />    <trip id="northLeft___southRight_227" type="car" from="northLeft___intersectionNW" to="intersectionSE___southRight" depart="227" />    <trip id="westBottom___westTop_227" type="car" from="westBottom___intersectionSW" to="intersectionNW___westTop" depart="227" />    <trip id="southRight___westTop_228" type="car" from="southRight___intersectionSE" to="intersectionNW___westTop" depart="228" />    <trip id="southLeft___eastTop_231" type="car" from="southLeft___intersectionSW" to="intersectionNE___eastTop" depart="231" />    <trip id="eastTop___westTop_235" type="car" from="eastTop___intersectionNE" to="intersectionNW___westTop" depart="235" />    <trip id="westTop___northLeft_238" type="car" from="westTop___intersectionNW" to="intersectionNW___northLeft" depart="238" />    <trip id="northRight___westTop_240" type="car" from="northRight___intersectionNE" to="intersectionNW___westTop" depart="240" />    <trip id="northRight___southLeft_241" type="car" from="northRight___intersectionNE" to="intersectionSW___southLeft" depart="241" />    <trip id="westBottom___eastBottom_242" type="car" from="westBottom___intersectionSW" to="intersectionSE___eastBottom" depart="242" />    <trip id="eastTop___northRight_244" type="car" from="eastTop___intersectionNE" to="intersectionNE___northRight" depart="244" />    <trip id="southLeft___northRight_246" type="car" from="southLeft___intersectionSW" to="intersectionNE___northRight" depart="246" />    <trip id="southRight___southLeft_250" type="car" from="southRight___intersectionSE" to="intersectionSW___southLeft" depart="250" />    <trip id="eastBottom___westBottom_254" type="car" from="eastBottom___intersectionSE" to="intersectionSW___westBottom" depart="254" />    <trip id="eastTop___southRight_254" type="car" from="eastTop___intersectionNE" to="intersectionSE___southRight" depart="254" />    <trip id="northRight___southRight_254" type="car" from="northRight___intersectionNE" to="intersectionSE___southRight" depart="254" />    <trip id="northRight___westBottom_256" type="car" from="northRight___intersectionNE" to="intersectionSW___westBottom" depart="256" />    <trip id="northRight___northLeft_258" type="car" from="northRight___intersectionNE" to="intersectionNW___northLeft" depart="258" />    <trip id="westBottom___southLeft_258" type="car" from="westBottom___intersectionSW" to="intersectionSW___southLeft" depart="258" />    <trip id="southLeft___eastBottom_259" type="car" from="southLeft___intersectionSW" to="intersectionSE___eastBottom" depart="259" />    <trip id="westTop___eastTop_259" type="car" from="westTop___intersectionNW" to="intersectionNE___eastTop" depart="259" />    <trip id="westBottom___eastTop_262" type="car" from="westBottom___intersectionSW" to="intersectionNE___eastTop" depart="262" />    <trip id="northRight___eastBottom_270" type="car" from="northRight___intersectionNE" to="intersectionSE___eastBottom" depart="270" />    <trip id="eastBottom___southLeft_271" type="car" from="eastBottom___intersectionSE" to="intersectionSW___southLeft" depart="271" />    <trip id="northLeft___eastTop_272" type="car" from="northLeft___intersectionNW" to="intersectionNE___eastTop" depart="272" />    <trip id="westBottom___eastBottom_272" type="car" from="westBottom___intersectionSW" to="intersectionSE___eastBottom" depart="272" />    <trip id="southRight___southLeft_273" type="car" from="southRight___intersectionSE" to="intersectionSW___southLeft" depart="273" />    <trip id="northLeft___westTop_276" type="car" from="northLeft___intersectionNW" to="intersectionNW___westTop" depart="276" />    <trip id="southRight___southLeft_276" type="car" from="southRight___intersectionSE" to="intersectionSW___southLeft" depart="276" />    <trip id="southRight___northRight_277" type="car" from="southRight___intersectionSE" to="intersectionNE___northRight" depart="277" />    <trip id="northRight___eastTop_278" type="car" from="northRight___intersectionNE" to="intersectionNE___eastTop" depart="278" />    <trip id="northRight___eastTop_280" type="car" from="northRight___intersectionNE" to="intersectionNE___eastTop" depart="280" />    <trip id="eastTop___westTop_282" type="car" from="eastTop___intersectionNE" to="intersectionNW___westTop" depart="282" />    <trip id="eastTop___northRight_283" type="car" from="eastTop___intersectionNE" to="intersectionNE___northRight" depart="283" />    <trip id="eastBottom___westTop_285" type="car" from="eastBottom___intersectionSE" to="intersectionNW___westTop" depart="285" />    <trip id="northRight___eastBottom_285" type="car" from="northRight___intersectionNE" to="intersectionSE___eastBottom" depart="285" />    <trip id="eastTop___northRight_297" type="car" from="eastTop___intersectionNE" to="intersectionNE___northRight" depart="297" />    <trip id="eastBottom___westTop_298" type="car" from="eastBottom___intersectionSE" to="intersectionNW___westTop" depart="298" />    <trip id="southLeft___westTop_303" type="car" from="southLeft___intersectionSW" to="intersectionNW___westTop" depart="303" />    <trip id="northRight___southRight_305" type="car" from="northRight___intersectionNE" to="intersectionSE___southRight" depart="305" />    <trip id="westTop___eastBottom_306" type="car" from="westTop___intersectionNW" to="intersectionSE___eastBottom" depart="306" />    <trip id="southRight___eastTop_313" type="car" from="southRight___intersectionSE" to="intersectionNE___eastTop" depart="313" />    <trip id="northRight___southRight_316" type="car" from="northRight___intersectionNE" to="intersectionSE___southRight" depart="316" />    <trip id="northRight___eastBottom_318" type="car" from="northRight___intersectionNE" to="intersectionSE___eastBottom" depart="318" />    <trip id="southLeft___eastTop_320" type="car" from="southLeft___intersectionSW" to="intersectionNE___eastTop" depart="320" />    <trip id="northLeft___northRight_321" type="car" from="northLeft___intersectionNW" to="intersectionNE___northRight" depart="321" />    <trip id="northRight___eastTop_327" type="car" from="northRight___intersectionNE" to="intersectionNE___eastTop" depart="327" />    <trip id="southRight___westBottom_327" type="car" from="southRight___intersectionSE" to="intersectionSW___westBottom" depart="327" />    <trip id="eastTop___southLeft_329" type="car" from="eastTop___intersectionNE" to="intersectionSW___southLeft" depart="329" />    <trip id="southRight___westTop_331" type="car" from="southRight___intersectionSE" to="intersectionNW___westTop" depart="331" />    <trip id="eastTop___northLeft_332" type="car" from="eastTop___intersectionNE" to="intersectionNW___northLeft" depart="332" />    <trip id="southRight___northLeft_332" type="car" from="southRight___intersectionSE" to="intersectionNW___northLeft" depart="332" />    <trip id="westBottom___northRight_336" type="car" from="westBottom___intersectionSW" to="intersectionNE___northRight" depart="336" />    <trip id="southLeft___westTop_339" type="car" from="southLeft___intersectionSW" to="intersectionNW___westTop" depart="339" />    <trip id="westBottom___westTop_339" type="car" from="westBottom___intersectionSW" to="intersectionNW___westTop" depart="339" />    <trip id="westBottom___southRight_341" type="car" from="westBottom___intersectionSW" to="intersectionSE___southRight" depart="341" />    <trip id="westTop___northLeft_342" type="car" from="westTop___intersectionNW" to="intersectionNW___northLeft" depart="342" />    <trip id="northRight___westTop_343" type="car" from="northRight___intersectionNE" to="intersectionNW___westTop" depart="343" />    <trip id="westBottom___northRight_343" type="car" from="westBottom___intersectionSW" to="intersectionNE___northRight" depart="343" />    <trip id="northRight___northLeft_344" type="car" from="northRight___intersectionNE" to="intersectionNW___northLeft" depart="344" />    <trip id="southRight___southLeft_344" type="car" from="southRight___intersectionSE" to="intersectionSW___southLeft" depart="344" />    <trip id="westBottom___northRight_344" type="car" from="westBottom___intersectionSW" to="intersectionNE___northRight" depart="344" />    <trip id="westBottom___westTop_345" type="car" from="westBottom___intersectionSW" to="intersectionNW___westTop" depart="345" />    <trip id="westTop___northRight_345" type="car" from="westTop___intersectionNW" to="intersectionNE___northRight" depart="345" />    <trip id="westBottom___northLeft_346" type="car" from="westBottom___intersectionSW" to="intersectionNW___northLeft" depart="346" />    <trip id="southLeft___southRight_347" type="car" from="southLeft___intersectionSW" to="intersectionSE___southRight" depart="347" />    <trip id="westTop___eastTop_347" type="car" from="westTop___intersectionNW" to="intersectionNE___eastTop" depart="347" />    <trip id="southLeft___southRight_355" type="car" from="southLeft___intersectionSW" to="intersectionSE___southRight" depart="355" />    <trip id="northRight___southRight_358" type="car" from="northRight___intersectionNE" to="intersectionSE___southRight" depart="358" />    <trip id="eastTop___westTop_360" type="car" from="eastTop___intersectionNE" to="intersectionNW___westTop" depart="360" />    <trip id="southRight___eastTop_360" type="car" from="southRight___intersectionSE" to="intersectionNE___eastTop" depart="360" />    <trip id="northRight___westBottom_362" type="car" from="northRight___intersectionNE" to="intersectionSW___westBottom" depart="362" />    <trip id="westBottom___northRight_369" type="car" from="westBottom___intersectionSW" to="intersectionNE___northRight" depart="369" />    <trip id="northLeft___westTop_372" type="car" from="northLeft___intersectionNW" to="intersectionNW___westTop" depart="372" />    <trip id="westBottom___westTop_373" type="car" from="westBottom___intersectionSW" to="intersectionNW___westTop" depart="373" />    <trip id="northLeft___westTop_375" type="car" from="northLeft___intersectionNW" to="intersectionNW___westTop" depart="375" />    <trip id="southRight___northLeft_375" type="car" from="southRight___intersectionSE" to="intersectionNW___northLeft" depart="375" />    <trip id="eastTop___westTop_379" type="car" from="eastTop___intersectionNE" to="intersectionNW___westTop" depart="379" />    <trip id="northLeft___southRight_380" type="car" from="northLeft___intersectionNW" to="intersectionSE___southRight" depart="380" />    <trip id="eastBottom___eastTop_381" type="car" from="eastBottom___intersectionSE" to="intersectionNE___eastTop" depart="381" />    <trip id="southRight___eastTop_382" type="car" from="southRight___intersectionSE" to="intersectionNE___eastTop" depart="382" />    <trip id="southRight___eastTop_384" type="car" from="southRight___intersectionSE" to="intersectionNE___eastTop" depart="384" />    <trip id="eastBottom___northRight_385" type="car" from="eastBottom___intersectionSE" to="intersectionNE___northRight" depart="385" />    <trip id="southRight___westTop_385" type="car" from="southRight___intersectionSE" to="intersectionNW___westTop" depart="385" />    <trip id="eastBottom___northRight_386" type="car" from="eastBottom___intersectionSE" to="intersectionNE___northRight" depart="386" />    <trip id="southRight___westBottom_386" type="car" from="southRight___intersectionSE" to="intersectionSW___westBottom" depart="386" />    <trip id="westTop___eastTop_386" type="car" from="westTop___intersectionNW" to="intersectionNE___eastTop" depart="386" />    <trip id="eastTop___eastBottom_389" type="car" from="eastTop___intersectionNE" to="intersectionSE___eastBottom" depart="389" />    <trip id="eastTop___eastBottom_390" type="car" from="eastTop___intersectionNE" to="intersectionSE___eastBottom" depart="390" />    <trip id="eastTop___northRight_393" type="car" from="eastTop___intersectionNE" to="intersectionNE___northRight" depart="393" />    <trip id="northLeft___eastTop_395" type="car" from="northLeft___intersectionNW" to="intersectionNE___eastTop" depart="395" />    <trip id="westBottom___westTop_404" type="car" from="westBottom___intersectionSW" to="intersectionNW___westTop" depart="404" />    <trip id="northLeft___southRight_405" type="car" from="northLeft___intersectionNW" to="intersectionSE___southRight" depart="405" />    <trip id="westTop___northRight_409" type="car" from="westTop___intersectionNW" to="intersectionNE___northRight" depart="409" />    <trip id="westBottom___westTop_410" type="car" from="westBottom___intersectionSW" to="intersectionNW___westTop" depart="410" />    <trip id="westBottom___southLeft_411" type="car" from="westBottom___intersectionSW" to="intersectionSW___southLeft" depart="411" />    <trip id="westTop___northRight_411" type="car" from="westTop___intersectionNW" to="intersectionNE___northRight" depart="411" />    <trip id="northLeft___westBottom_415" type="car" from="northLeft___intersectionNW" to="intersectionSW___westBottom" depart="415" />    <trip id="southLeft___westTop_415" type="car" from="southLeft___intersectionSW" to="intersectionNW___westTop" depart="415" />    <trip id="westTop___northRight_419" type="car" from="westTop___intersectionNW" to="intersectionNE___northRight" depart="419" />    <trip id="southLeft___westTop_421" type="car" from="southLeft___intersectionSW" to="intersectionNW___westTop" depart="421" />    <trip id="northRight___southRight_425" type="car" from="northRight___intersectionNE" to="intersectionSE___southRight" depart="425" />    <trip id="westBottom___northLeft_425" type="car" from="westBottom___intersectionSW" to="intersectionNW___northLeft" depart="425" />    <trip id="westTop___southRight_427" type="car" from="westTop___intersectionNW" to="intersectionSE___southRight" depart="427" />    <trip id="northRight___eastBottom_428" type="car" from="northRight___intersectionNE" to="intersectionSE___eastBottom" depart="428" />    <trip id="southRight___eastTop_429" type="car" from="southRight___intersectionSE" to="intersectionNE___eastTop" depart="429" />    <trip id="northLeft___southRight_434" type="car" from="northLeft___intersectionNW" to="intersectionSE___southRight" depart="434" />    <trip id="northRight___southLeft_435" type="car" from="northRight___intersectionNE" to="intersectionSW___southLeft" depart="435" />    <trip id="westTop___eastBottom_441" type="car" from="westTop___intersectionNW" to="intersectionSE___eastBottom" depart="441" />    <trip id="eastBottom___northLeft_445" type="car" from="eastBottom___intersectionSE" to="intersectionNW___northLeft" depart="445" />    <trip id="eastTop___northRight_446" type="car" from="eastTop___intersectionNE" to="intersectionNE___northRight" depart="446" />    <trip id="northRight___eastTop_446" type="car" from="northRight___intersectionNE" to="intersectionNE___eastTop" depart="446" />    <trip id="southLeft___eastTop_448" type="car" from="southLeft___intersectionSW" to="intersectionNE___eastTop" depart="448" />    <trip id="southLeft___northLeft_449" type="car" from="southLeft___intersectionSW" to="intersectionNW___northLeft" depart="449" />    <trip id="westBottom___northLeft_449" type="car" from="westBottom___intersectionSW" to="intersectionNW___northLeft" depart="449" />    <trip id="southLeft___eastBottom_450" type="car" from="southLeft___intersectionSW" to="intersectionSE___eastBottom" depart="450" />    <trip id="westTop___westBottom_453" type="car" from="westTop___intersectionNW" to="intersectionSW___westBottom" depart="453" />    <trip id="southRight___eastBottom_454" type="car" from="southRight___intersectionSE" to="intersectionSE___eastBottom" depart="454" />    <trip id="eastTop___northRight_460" type="car" from="eastTop___intersectionNE" to="intersectionNE___northRight" depart="460" />    <trip id="northRight___southLeft_460" type="car" from="northRight___intersectionNE" to="intersectionSW___southLeft" depart="460" />    <trip id="northLeft___southLeft_461" type="car" from="northLeft___intersectionNW" to="intersectionSW___southLeft" depart="461" />    <trip id="eastTop___southRight_465" type="car" from="eastTop___intersectionNE" to="intersectionSE___southRight" depart="465" />    <trip id="southLeft___northLeft_46