
        <routes>
            <vType id="car" accel="0.8" decel="4.5" sigma="0.5" length="5" minGap="2.5" maxSpeed="15" guiShape="passenger"/>
            <trip id="northRight___northLeft_0" type="car" from="northRight___intersectionNE" to="intersectionNW___northLeft" depart="0" />    <trip id="westBottom___westTop_0" type="car" from="westBottom___intersectionSW" to="intersectionNW___westTop" depart="0" />    <trip id="northRight___eastBottom_1" type="car" from="northRight___intersectionNE" to="intersectionSE___eastBottom" depart="1" />    <trip id="northLeft___eastTop_2" type="car" from="northLeft___intersectionNW" to="intersectionNE___eastTop" depart="2" />    <trip id="southLeft___eastBottom_4" type="car" from="southLeft___intersectionSW" to="intersectionSE___eastBottom" depart="4" />    <trip id="eastBottom___southRight_8" type="car" from="eastBottom___intersectionSE" to="intersectionSE___southRight" depart="8" />    <trip id="eastBottom___westTop_10" type="car" from="eastBottom___intersectionSE" to="intersectionNW___westTop" depart="10" />    <trip id="eastTop___southRight_12" type="car" from="eastTop___intersectionNE" to="intersectionSE___southRight" depart="12" />    <trip id="northRight___eastBottom_13" type="car" from="northRight___intersectionNE" to="intersectionSE___eastBottom" depart="13" />    <trip id="southLeft___northRight_13" type="car" from="southLeft___intersectionSW" to="intersectionNE___northRight" depart="13" />    <trip id="eastTop___westBottom_14" type="car" from="eastTop___intersectionNE" to="intersectionSW___westBottom" depart="14" />    <trip id="southRight___southLeft_20" type="car" from="southRight___intersectionSE" to="intersectionSW___southLeft" depart="20" />    <trip id="eastTop___westBottom_23" type="car" from="eastTop___intersectionNE" to="intersectionSW___westBottom" depart="23" />    <trip id="northLeft___westBottom_24" type="car" from="northLeft___intersectionNW" to="intersectionSW___westBottom" depart="24" />    <trip id="northRight___eastBottom_30" type="car" from="northRight___intersectionNE" to="intersectionSE___eastBottom" depart="30" />    <trip id="northLeft___westBottom_33" type="car" from="northLeft___intersectionNW" to="intersectionSW___westBottom" depart="33" />    <trip id="westTop___southLeft_33" type="car" from="westTop___intersectionNW" to="intersectionSW___southLeft" depart="33" />    <trip id="northRight___eastTop_34" type="car" from="northRight___intersectionNE" to="intersectionNE___eastTop" depart="34" />    <trip id="westTop___eastBottom_41" type="car" from="westTop___intersectionNW" to="intersectionSE___eastBottom" depart="41" />    <trip id="southLeft___southRight_44" type="car" from="southLeft___intersectionSW" to="intersectionSE___southRight" depart="44" />    <trip id="southLeft___northRight_45" type="car" from="southLeft___intersectionSW" to="intersectionNE___northRight" depart="45" />    <trip id="westTop___eastBottom_45" type="car" from="westTop___intersectionNW" to="intersectionSE___eastBottom" depart="45" />    <trip id="northRight___westBottom_47" type="car" from="northRight___intersectionNE" to="intersectionSW___westBottom" depart="47" />    <trip id="southRight___westBottom_47" type="car" from="southRight___intersectionSE" to="intersectionSW___westBottom" depart="47" />    <trip id="eastBottom___northLeft_49" type="car" from="eastBottom___intersectionSE" to="intersectionNW___northLeft" depart="49" />    <trip id="northRight___eastTop_49" type="car" from="northRight___intersectionNE" to="intersectionNE___eastTop" depart="49" />    <trip id="westTop___eastTop_50" type="car" from="westTop___intersectionNW" to="intersectionNE___eastTop" depart="50" />    <trip id="northRight___southRight_51" type="car" from="northRight___intersectionNE" to="intersectionSE___southRight" depart="51" />    <trip id="westTop___southLeft_53" type="car" from="westTop___intersectionNW" to="intersectionSW___southLeft" depart="53" />    <trip id="northRight___eastTop_54" type="car" from="northRight___intersectionNE" to="intersectionNE___eastTop" depart="54" />    <trip id="northLeft___southRight_55" type="car" from="northLeft___intersectionNW" to="intersectionSE___southRight" depart="55" />    <trip id="westBottom___eastBottom_56" type="car" from="westBottom___intersectionSW" to="intersectionSE___eastBottom" depart="56" />    <trip id="eastBottom___northLeft_58" type="car" from="eastBottom___intersectionSE" to="intersectionNW___northLeft" depart="58" />    <trip id="northLeft___westBottom_58" type="car" from="northLeft___intersectionNW" to="intersectionSW___westBottom" depart="58" />    <trip id="southRight___eastBottom_68" type="car" from="southRight___intersectionSE" to="intersectionSE___eastBottom" depart="68" />    <trip id="northRight___westBottom_78" type="car" from="northRight___intersectionNE" to="intersectionSW___westBottom" depart="78" />    <trip id="southRight___southLeft_85" type="car" from="southRight___intersectionSE" to="intersectionSW___southLeft" depart="85" />    <trip id="northRight___westBottom_86" type="car" from="northRight___intersectionNE" to="intersectionSW___westBottom" depart="86" />    <trip id="westBottom___eastTop_86" type="car" from="westBottom___intersectionSW" to="intersectionNE___eastTop" depart="86" />    <trip id="eastTop___southRight_91" type="car" from="eastTop___intersectionNE" to="intersectionSE___southRight" depart="91" />    <trip id="northRight___northLeft_93" type="car" from="northRight___intersectionNE" to="intersectionNW___northLeft" depart="93" />    <trip id="westTop___southRight_93" type="car" from="westTop___intersectionNW" to="intersectionSE___southRight" depart="93" />    <trip id="westTop___northLeft_94" type="car" from="westTop___intersectionNW" to="intersectionNW___northLeft" depart="94" />    <trip id="westBottom___northRight_95" type="car" from="westBottom___intersectionSW" to="intersectionNE___northRight" depart="95" />    <trip id="northLeft___westBottom_98" type="car" from="northLeft___intersectionNW" to="intersectionSW___westBottom" depart="98" />    <trip id="southRight___westTop_98" type="car" from="southRight___intersectionSE" to="intersectionNW___westTop" depart="98" />    <trip id="southLeft___northRight_99" type="car" from="southLeft___intersectionSW" to="intersectionNE___northRight" depart="99" />    <trip id="northRight___eastTop_101" type="car" from="northRight___intersectionNE" to="intersectionNE___eastTop" depart="101" />    <trip id="eastBottom___westTop_102" type="car" from="eastBottom___intersectionSE" to="intersectionNW___westTop" depart="102" />    <trip id="northRight___westTop_102" type="car" from="northRight___intersectionNE" to="intersectionNW___westTop" depart="102" />    <trip id="northRight___southRight_103" type="car" from="northRight___intersectionNE" to="intersectionSE___southRight" depart="103" />    <trip id="southRight___eastTop_103" type="car" from="southRight___intersectionSE" to="intersectionNE___eastTop" depart="103" />    <trip id="southRight___northRight_104" type="car" from="southRight___intersectionSE" to="intersectionNE___northRight" depart="104" />    <trip id="westTop___northLeft_114" type="car" from="westTop___intersectionNW" to="intersectionNW___northLeft" depart="114" />    <trip id="eastBottom___southLeft_117" type="car" from="eastBottom___intersectionSE" to="intersectionSW___southLeft" depart="117" />    <trip id="northLeft___northRight_120" type="car" from="northLeft___intersectionNW" to="intersectionNE___northRight" depart="120" />    <trip id="southLeft___southRight_125" type="car" from="southLeft___intersectionSW" to="intersectionSE___southRight" depart="125" />    <trip id="westBottom___southRight_131" type="car" from="westBottom___intersectionSW" to="intersectionSE___southRight" depart="131" />    <trip id="eastTop___northRight_132" type="car" from="eastTop___intersectionNE" to="intersectionNE___northRight" depart="132" />    <trip id="eastBottom___northLeft_134" type="car" from="eastBottom___intersectionSE" to="intersectionNW___northLeft" depart="134" />    <trip id="southRight___westBottom_134" type="car" from="southRight___intersectionSE" to="intersectionSW___westBottom" depart="134" />    <trip id="northRight___southLeft_139" type="car" from="northRight___intersectionNE" to="intersectionSW___southLeft" depart="139" />    <trip id="westTop___southLeft_139" type="car" from="westTop___intersectionNW" to="intersectionSW___southLeft" depart="139" />    <trip id="southLeft___northLeft_140" type="car" from="southLeft___intersectionSW" to="intersectionNW___northLeft" depart="140" />    <trip id="northLeft___southLeft_144" type="car" from="northLeft___intersectionNW" to="intersectionSW___southLeft" depart="144" />    <trip id="eastTop___northLeft_150" type="car" from="eastTop___intersectionNE" to="intersectionNW___northLeft" depart="150" />    <trip id="southLeft___northRight_152" type="car" from="southLeft___intersectionSW" to="intersectionNE___northRight" depart="152" />    <trip id="southLeft___northRight_153" type="car" from="southLeft___intersectionSW" to="intersectionNE___northRight" depart="153" />    <trip id="southLeft___northRight_154" type="car" from="southLeft___intersectionSW" to="intersectionNE___northRight" depart="154" />    <trip id="southRight___northLeft_156" type="car" from="southRight___intersectionSE" to="intersectionNW___northLeft" depart="156" />    <trip id="westBottom___eastTop_156" type="car" from="westBottom___intersectionSW" to="intersectionNE___eastTop" depart="156" />    <trip id="northRight___eastTop_157" type="car" from="northRight___intersectionNE" to="intersectionNE___eastTop" depart="157" />    <trip id="eastBottom___westBottom_165" type="car" from="eastBottom___intersectionSE" to="intersectionSW___westBottom" depart="165" />    <trip id="eastTop___northRight_165" type="car" from="eastTop___intersectionNE" to="intersectionNE___northRight" depart="165" />    <trip id="westBottom___eastBottom_170" type="car" from="westBottom___intersectionSW" to="intersectionSE___eastBottom" depart="170" />    <trip id="southLeft___northLeft_171" type="car" from="southLeft___intersectionSW" to="intersectionNW___northLeft" depart="171" />    <trip id="northLeft___westBottom_176" type="car" from="northLeft___intersectionNW" to="intersectionSW___westBottom" depart="176" />    <trip id="westTop___northLeft_177" type="car" from="westTop___intersectionNW" to="intersectionNW___northLeft" depart="177" />    <trip id="southLeft___northLeft_183" type="car" from="southLeft___intersectionSW" to="intersectionNW___northLeft" depart="183" />    <trip id="southLeft___eastBottom_187" type="car" from="southLeft___intersectionSW" to="intersectionSE___eastBottom" depart="187" />    <trip id="southLeft___eastBottom_190" type="car" from="southLeft___intersectionSW" to="intersectionSE___eastBottom" depart="190" />    <trip id="northRight___westBottom_192" type="car" from="northRight___intersectionNE" to="intersectionSW___westBottom" depart="192" />    <trip id="eastBottom___northLeft_193" type="car" from="eastBottom___intersectionSE" to="intersectionNW___northLeft" depart="193" />    <trip id="eastTop___northRight_200" type="car" from="eastTop___intersectionNE" to="intersectionNE___northRight" depart="200" />    <trip id="northLeft___northRight_201" type="car" from="northLeft___intersectionNW" to="intersectionNE___northRight" depart="201" />    <trip id="southLeft___southRight_205" type="car" from="southLeft___intersectionSW" to="intersectionSE___southRight" depart="205" />    <trip id="northLeft___eastTop_207" type="car" from="northLeft___intersectionNW" to="intersectionNE___eastTop" depart="207" />    <trip id="westBottom___eastTop_208" type="car" from="westBottom___intersectionSW" to="intersectionNE___eastTop" depart="208" />    <trip id="southRight___eastTop_209" type="car" from="southRight___intersectionSE" to="intersectionNE___eastTop" depart="209" />    <trip id="westBottom___eastBottom_211" type="car" from="westBottom___intersectionSW" to="intersectionSE___eastBottom" depart="211" />    <trip id="northLeft___eastTop_213" type="car" from="northLeft___intersectionNW" to="intersectionNE___eastTop" depart="213" />    <trip id="southLeft___westTop_213" type="car" from="southLeft___intersectionSW" to="intersectionNW___westTop" depart="213" />    <trip id="eastBottom___westTop_214" type="car" from="eastBottom___intersectionSE" to="intersectionNW___westTop" depart="214" />    <trip id="northLeft___eastTop_214" type="car" from="northLeft___intersectionNW" to="intersectionNE___eastTop" depart="214" />    <trip id="southRight___eastTop_215" type="car" from="southRight___intersectionSE" to="intersectionNE___eastTop" depart="215" />    <trip id="eastTop___eastBottom_216" type="car" from="eastTop___intersectionNE" to="intersectionSE___eastBottom" depart="216" />    <trip id="northRight___southRight_219" type="car" from="northRight___intersectionNE" to="intersectionSE___southRight" depart="219" />    <trip id="northLeft___eastTop_220" type="car" from="northLeft___intersectionNW" to="intersectionNE___eastTop" depart="220" />    <trip id="westBottom___northLeft_222" type="car" from="westBottom___intersectionSW" to="intersectionNW___northLeft" depart="222" />    <trip id="southLeft___westTop_227" type="car" from="southLeft___intersectionSW" to="intersectionNW___westTop" depart="227" />    <trip id="northRight___westTop_229" type="car" from="northRight___intersectionNE" to="intersectionNW___westTop" depart="229" />    <trip id="westBottom___northLeft_231" type="car" from="westBottom___intersectionSW" to="intersectionNW___northLeft" depart="231" />    <trip id="southLeft___westBottom_232" type="car" from="southLeft___intersectionSW" to="intersectionSW___westBottom" depart="232" />    <trip id="westTop___eastTop_234" type="car" from="westTop___intersectionNW" to="intersectionNE___eastTop" depart="234" />    <trip id="westBottom___southRight_236" type="car" from="westBottom___intersectionSW" to="intersectionSE___southRight" depart="236" />    <trip id="eastBottom___southRight_237" type="car" from="eastBottom___intersectionSE" to="intersectionSE___southRight" depart="237" />    <trip id="eastTop___westBottom_237" type="car" from="eastTop___intersectionNE" to="intersectionSW___westBottom" depart="237" />    <trip id="northRight___southLeft_241" type="car" from="northRight___intersectionNE" to="intersectionSW___southLeft" depart="241" />    <trip id="northRight___westBottom_242" type="car" from="northRight___intersectionNE" to="intersectionSW___westBottom" depart="242" />    <trip id="northLeft___eastBottom_246" type="car" from="northLeft___intersectionNW" to="intersectionSE___eastBottom" depart="246" />    <trip id="southRight___northRight_246" type="car" from="southRight___intersectionSE" to="intersectionNE___northRight" depart="246" />    <trip id="eastBottom___southRight_247" type="car" from="eastBottom___intersectionSE" to="intersectionSE___southRight" depart="247" />    <trip id="westTop___westBottom_248" type="car" from="westTop___intersectionNW" to="intersectionSW___westBottom" depart="248" />    <trip id="southRight___southLeft_249" type="car" from="southRight___intersectionSE" to="intersectionSW___southLeft" depart="249" />    <trip id="northRight___northLeft_251" type="car" from="northRight___intersectionNE" to="intersectionNW___northLeft" depart="251" />    <trip id="northLeft___westBottom_256" type="car" from="northLeft___intersectionNW" to="intersectionSW___westBottom" depart="256" />    <trip id="northLeft___eastTop_257" type="car" from="northLeft___intersectionNW" to="intersectionNE___eastTop" depart="257" />    <trip id="eastBottom___southRight_258" type="car" from="eastBottom___intersectionSE" to="intersectionSE___southRight" depart="258" />    <trip id="westTop___northLeft_258" type="car" from="westTop___intersectionNW" to="intersectionNW___northLeft" depart="258" />    <trip id="southLeft___northLeft_264" type="car" from="southLeft___intersectionSW" to="intersectionNW___northLeft" depart="264" />    <trip id="southRight___northRight_264" type="car" from="southRight___intersectionSE" to="intersectionNE___northRight" depart="264" />    <trip id="westBottom___southRight_264" type="car" from="westBottom___intersectionSW" to="intersectionSE___southRight" depart="264" />    <trip id="westBottom___southLeft_268" type="car" from="westBottom___intersectionSW" to="intersectionSW___southLeft" depart="268" />    <trip id="westTop___southRight_268" type="car" from="westTop___intersectionNW" to="intersectionSE___southRight" depart="268" />    <trip id="southLeft___southRight_272" type="car" from="southLeft___intersectionSW" to="intersectionSE___southRight" depart="272" />    <trip id="northRight___westTop_273" type="car" from="northRight___intersectionNE" to="intersectionNW___westTop" depart="273" />    <trip id="westTop___northRight_277" type="car" from="westTop___intersectionNW" to="intersectionNE___northRight" depart="277" />    <trip id="westBottom___northRight_279" type="car" from="westBottom___intersectionSW" to="intersectionNE___northRight" depart="279" />    <trip id="northLeft___westTop_283" type="car" from="northLeft___intersectionNW" to="intersectionNW___westTop" depart="283" />    <trip id="eastBottom___westTop_286" type="car" from="eastBottom___intersectionSE" to="intersectionNW___westTop" depart="286" />    <trip id="southRight___northRight_287" type="car" from="southRight___intersectionSE" to="intersectionNE___northRight" depart="287" />    <trip id="southRight___eastTop_290" type="car" from="southRight___intersectionSE" to="intersectionNE___eastTop" depart="290" />    <trip id="eastTop___eastBottom_291" type="car" from="eastTop___intersectionNE" to="intersectionSE___eastBottom" depart="291" />    <trip id="southRight___eastTop_291" type="car" from="southRight___intersectionSE" to="intersectionNE___eastTop" depart="291" />    <trip id="southLeft___westBottom_296" type="car" from="southLeft___intersectionSW" to="intersectionSW___westBottom" depart="296" />    <trip id="westBottom___northLeft_297" type="car" from="westBottom___intersectionSW" to="intersectionNW___northLeft" depart="297" />    <trip id="eastBottom___westBottom_300" type="car" from="eastBottom___intersectionSE" to="intersectionSW___westBottom" depart="300" />    <trip id="southRight___northRight_304" type="car" from="southRight___intersectionSE" to="intersectionNE___northRight" depart="304" />    <trip id="northRight___eastTop_305" type="car" from="northRight___intersectionNE" to="intersectionNE___eastTop" depart="305" />    <trip id="westBottom___westTop_312" type="car" from="westBottom___intersectionSW" to="intersectionNW___westTop" depart="312" />    <trip id="southLeft___westTop_313" type="car" from="southLeft___intersectionSW" to="intersectionNW___westTop" depart="313" />    <trip id="eastTop___westTop_316" type="car" from="eastTop___intersectionNE" to="intersectionNW___westTop" depart="316" />    <trip id="westBottom___northRight_316" type="car" from="westBottom___intersectionSW" to="intersectionNE___northRight" depart="316" />    <trip id="westTop___northLeft_317" type="car" from="westTop___intersectionNW" to="intersectionNW___northLeft" depart="317" />    <trip id="southRight___westTop_318" type="car" from="southRight___intersectionSE" to="intersectionNW___westTop" depart="318" />    <trip id="northRight___westTop_319" type="car" from="northRight___intersectionNE" to="intersectionNW___westTop" depart="319" />    <trip id="eastTop___southLeft_322" type="car" from="eastTop___intersectionNE" to="intersectionSW___southLeft" depart="322" />    <trip id="westBottom___eastTop_323" type="car" from="westBottom___intersectionSW" to="intersectionNE___eastTop" depart="323" />    <trip id="northRight___northLeft_325" type="car" from="northRight___intersectionNE" to="intersectionNW___northLeft" depart="325" />    <trip id="northLeft___eastBottom_326" type="car" from="northLeft___intersectionNW" to="intersectionSE___eastBottom" depart="326" />    <trip id="northRight___northLeft_327" type="car" from="northRight___intersectionNE" to="intersectionNW___northLeft" depart="327" />    <trip id="southRight___westBottom_331" type="car" from="southRight___intersectionSE" to="intersectionSW___westBottom" depart="331" />    <trip id="northLeft___eastTop_332" type="car" from="northLeft___intersectionNW" to="intersectionNE___eastTop" depart="332" />    <trip id="westBottom___southLeft_342" type="car" from="westBottom___intersectionSW" to="intersectionSW___southLeft" depart="342" />    <trip id="eastBottom___southRight_343" type="car" from="eastBottom___intersectionSE" to="intersectionSE___southRight" depart="343" />    <trip id="southLeft___southRight_344" type="car" from="southLeft___intersectionSW" to="intersectionSE___southRight" depart="344" />    <trip id="southRight___eastBottom_345" type="car" from="southRight___intersectionSE" to="intersectionSE___eastBottom" depart="345" />    <trip id="southRight___westTop_346" type="car" from="southRight___intersectionSE" to="intersectionNW___westTop" depart="346" />    <trip id="southLeft___northRight_349" type="car" from="southLeft___intersectionSW" to="intersectionNE___northRight" depart="349" />    <trip id="eastTop___southRight_352" type="car" from="eastTop___intersectionNE" to="intersectionSE___southRight" depart="352" />    <trip id="southLeft___southRight_352" type="car" from="southLeft___intersectionSW" to="intersectionSE___southRight" depart="352" />    <trip id="northLeft___eastBottom_354" type="car" from="northLeft___intersectionNW" to="intersectionSE___eastBottom" depart="354" />    <trip id="southLeft___westBottom_354" type="car" from="southLeft___intersectionSW" to="intersectionSW___westBottom" depart="354" />    <trip id="eastBottom___westTop_357" type="car" from="eastBottom___intersectionSE" to="intersectionNW___westTop" depart="357" />    <trip id="northRight___eastBottom_357" type="car" from="northRight___intersectionNE" to="intersectionSE___eastBottom" depart="357" />    <trip id="westBottom___southLeft_358" type="car" from="westBottom___intersectionSW" to="intersectionSW___southLeft" depart="358" />    <trip id="westBottom___southLeft_360" type="car" from="westBottom___intersectionSW" to="intersectionSW___southLeft" depart="360" />    <trip id="westTop___westBottom_360" type="car" from="westTop___intersectionNW" to="intersectionSW___westBottom" depart="360" />    <trip id="southLeft___northLeft_361" type="car" from="southLeft___intersectionSW" to="intersectionNW___northLeft" depart="361" />    <trip id="northLeft___southLeft_362" type="car" from="northLeft___intersectionNW" to="intersectionSW___southLeft" depart="362" />    <trip id="eastTop___westBottom_363" type="car" from="eastTop___intersectionNE" to="intersectionSW___westBottom" depart="363" />    <trip id="eastTop___westTop_367" type="car" from="eastTop___intersectionNE" to="intersectionNW___westTop" depart="367" />    <trip id="westTop___eastBottom_368" type="car" from="westTop___intersectionNW" to="intersectionSE___eastBottom" depart="368" />    <trip id="northLeft___westBottom_369" type="car" from="northLeft___intersectionNW" to="intersectionSW___westBottom" depart="369" />    <trip id="southLeft___westBottom_370" type="car" from="southLeft___intersectionSW" to="intersectionSW___westBottom" depart="370" />    <trip id="southLeft___northLeft_372" type="car" from="southLeft___intersectionSW" to="intersectionNW___northLeft" depart="372" />    <trip id="eastTop___northRight_373" type="car" from="eastTop___intersectionNE" to="intersectionNE___northRight" depart="373" />    <trip id="northLeft___westBottom_375" type="car" from="northLeft___intersectionNW" to="intersectionSW___westBottom" depart="375" />    <trip id="westBottom___southRight_375" type="car" from="westBottom___intersectionSW" to="intersectionSE___southRight" depart="375" />    <trip id="westTop___eastTop_380" type="car" from="westTop___intersectionNW" to="intersectionNE___eastTop" depart="380" />    <trip id="southLeft___westBottom_382" type="car" from="southLeft___intersectionSW" to="intersectionSW___westBottom" depart="382" />    <trip id="northRight___westBottom_387" type="car" from="northRight___intersectionNE" to="intersectionSW___westBottom" depart="387" />    <trip id="eastBottom___eastTop_390" type="car" from="eastBottom___intersectionSE" to="intersectionNE___eastTop" depart="390" />    <trip id="northLeft___westTop_390" type="car" from="northLeft___intersectionNW" to="intersectionNW___westTop" depart="390" />    <trip id="eastTop___southLeft_392" type="car" from="eastTop___intersectionNE" to="intersectionSW___southLeft" depart="392" />    <trip id="eastBottom___westTop_393" type="car" from="eastBottom___intersectionSE" to="intersectionNW___westTop" depart="393" />    <trip id="eastBottom___northLeft_394" type="car" from="eastBottom___intersectionSE" to="intersectionNW___northLeft" depart="394" />    <trip id="northRight___northLeft_401" type="car" from="northRight___intersectionNE" to="intersectionNW___northLeft" depart="401" />    <trip id="westBottom___southLeft_401" type="car" from="westBottom___intersectionSW" to="intersectionSW___southLeft" depart="401" />    <trip id="northRight___southLeft_402" type="car" from="northRight___intersectionNE" to="intersectionSW___southLeft" depart="402" />    <trip id="southLeft___eastTop_402" type="car" from="southLeft___intersectionSW" to="intersectionNE___eastTop" depart="402" />    <trip id="eastBottom___southLeft_405" type="car" from="eastBottom___intersectionSE" to="intersectionSW___southLeft" depart="405" />    <trip id="southLeft___southRight_405" type="car" from="southLeft___intersectionSW" to="intersectionSE___southRight" depart="405" />    <trip id="eastBottom___westBottom_410" type="car" from="eastBottom___intersectionSE" to="intersectionSW___westBottom" depart="410" />    <trip id="southLeft___westTop_410" type="car" from="southLeft___intersectionSW" to="intersectionNW___westTop" depart="410" />    <trip id="westTop___southLeft_414" type="car" from="westTop___intersectionNW" to="intersectionSW___southLeft" depart="414" />    <trip id="westTop___westBottom_417" type="car" from="westTop___intersectionNW" to="intersectionSW___westBottom" depart="417" />    <trip id="southLeft___eastBottom_419" type="car" from="southLeft___intersectionSW" to="intersectionSE___eastBottom" depart="419" />    <trip id="westBottom___eastBottom_421" type="car" from="westBottom___intersectionSW" to="intersectionSE___eastBottom" depart="421" />    <trip id="southRight___eastBottom_422" type="car" from="southRight___intersectionSE" to="intersectionSE___eastBottom" depart="422" />    <trip id="westTop___eastBottom_422" type="car" from="westTop___intersectionNW" to="intersectionSE___eastBottom" depart="422" />    <trip id="eastBottom___eastTop_429" type="car" from="eastBottom___intersectionSE" to="intersectionNE___eastTop" depart="429" />    <trip id="westBottom___northRight_429" type="car" from="westBottom___intersectionSW" to="intersectionNE___northRight" depart="429" />    <trip id="southLeft___westTop_432" type="car" from="southLeft___intersectionSW" to="intersectionNW___westTop" depart="432" />    <trip id="westBottom___northLeft_432" type="car" from="westBottom___intersectionSW" to="intersectionNW___northLeft" depart="432" />    <trip id="northLeft___westTop_433" type="car" from="northLeft___intersectionNW" to="intersectionNW___westTop" depart="433" />    <trip id="westBottom___eastTop_438" type="car" from="westBottom___intersectionSW" to="intersectionNE___eastTop" depart="438" />    <trip id="eastTop___northLeft_439" type="car" from="eastTop___intersectionNE" to="intersectionNW___northLeft" depart="439" />    <trip id="westBottom___eastBottom_440" type="car" from="westBottom___intersectionSW" to="intersectionSE___eastBottom" depart="440" />    <trip id="northLeft___eastBottom_441" type="car" from="northLeft___intersectionNW" to="intersectionSE___eastBottom" depart="441" />    <trip id="northRight___westBottom_442" type="car" from="northRight___intersectionNE" to="intersectionSW___westBottom" depart="442" />    <trip id="westBottom___southRight_442" type="car" from="westBottom___intersectionSW" to="intersectionSE___southRight" depart="442" />    <trip id="westBottom___southRight_444" type="car" from="westBottom___intersectionSW" to="intersectionSE___southRight" depart="444" />    <trip id="westTop___eastBottom_444" type="car" from="westTop___intersectionNW" to="intersectionSE___eastBottom" depart="444" />    <trip id="southRight___westBottom_456" type="car" from="southRight___intersectionSE" to="intersectionSW___westBottom" depart="456" />    <trip id="westTop___northRight_458" type="car" from="westTop___intersectionNW" to="intersectionNE___northRight" depart="458" />    <trip id="eastTop___southRight_464" type="car" from="eastTop___intersectionNE" to="intersectionSE___southRight" depart="464" />    <trip id="northLeft___westBottom_464" type="car" from="northLeft___intersectionNW" to="intersectionSW___westBottom" depart="464" />    <trip id="northRight___westBottom_465" type="car" from="northRight___intersectionNE" to="intersectionSW___westBottom" depart="465" />    <trip id="westTop___northRight_469" type="car" from="westTop___intersectionNW" to="intersectionNE___northRight" depart="469" />    <trip id="eastTop___northRight_471" type="car" from="eastTop___intersectionNE" to="intersectionNE___northRight" depart="471" />    <trip id="northLeft___northRight_471" type="car" from="northLeft___intersectionNW" to="intersectionNE___northRight" depart="471" />    <trip id="southLeft___westBottom_471" type="car" from="southLeft___intersectionSW" to="intersectionSW___westBottom" depart="471" />    <trip id="northLeft___eastTop_472" type="car" from="northLeft___intersectionNW" to="intersectionNE___eastTop" depart="472" />    <trip id="westBottom___eastTop_472" type="car" from="westBottom___intersectionSW" to="intersectionNE_