
        <routes>
            <vType id="car" accel="0.8" decel="4.5" sigma="0.5" length="5" minGap="2.5" maxSpeed="15" guiShape="passenger"/>
            <trip id="northLeft___northRight_0" type="car" from="northLeft___intersectionNW" to="intersectionNE___northRight" depart="0" />    <trip id="southMiddle___eastTop_0" type="car" from="southMiddle___intersectionS" to="intersectionNE___eastTop" depart="0" />    <trip id="southMiddle___westBottom_1" type="car" from="southMiddle___intersectionS" to="intersectionSW___westBottom" depart="1" />    <trip id="westMiddle___westBottom_1" type="car" from="westMiddle___intersectionW" to="intersectionSW___westBottom" depart="1" />    <trip id="northMiddle___eastTop_3" type="car" from="northMiddle___intersectionN" to="intersectionNE___eastTop" depart="3" />    <trip id="southMiddle___southRight_5" type="car" from="southMiddle___intersectionS" to="intersectionSE___southRight" depart="5" />    <trip id="southMiddle___northRight_7" type="car" from="southMiddle___intersectionS" to="intersectionNE___northRight" depart="7" />    <trip id="northMiddle___eastMiddle_9" type="car" from="northMiddle___intersectionN" to="intersectionE___eastMiddle" depart="9" />    <trip id="southLeft___northLeft_9" type="car" from="southLeft___intersectionSW" to="intersectionNW___northLeft" depart="9" />    <trip id="northRight___eastTop_10" type="car" from="northRight___intersectionNE" to="intersectionNE___eastTop" depart="10" />    <trip id="westTop___southRight_10" type="car" from="westTop___intersectionNW" to="intersectionSE___southRight" depart="10" />    <trip id="northRight___eastBottom_11" type="car" from="northRight___intersectionNE" to="intersectionSE___eastBottom" depart="11" />    <trip id="northLeft___northMiddle_13" type="car" from="northLeft___intersectionNW" to="intersectionN___northMiddle" depart="13" />    <trip id="northMiddle___northRight_13" type="car" from="northMiddle___intersectionN" to="intersectionNE___northRight" depart="13" />    <trip id="westBottom___northRight_14" type="car" from="westBottom___intersectionSW" to="intersectionNE___northRight" depart="14" />    <trip id="westMiddle___northRight_15" type="car" from="westMiddle___intersectionW" to="intersectionNE___northRight" depart="15" />    <trip id="southLeft___northRight_16" type="car" from="southLeft___intersectionSW" to="intersectionNE___northRight" depart="16" />    <trip id="northLeft___southMiddle_18" type="car" from="northLeft___intersectionNW" to="intersectionS___southMiddle" depart="18" />    <trip id="northRight___eastBottom_18" type="car" from="northRight___intersectionNE" to="intersectionSE___eastBottom" depart="18" />    <trip id="northLeft___westBottom_20" type="car" from="northLeft___intersectionNW" to="intersectionSW___westBottom" depart="20" />    <trip id="eastTop___southMiddle_24" type="car" from="eastTop___intersectionNE" to="intersectionS___southMiddle" depart="24" />    <trip id="southLeft___northMiddle_24" type="car" from="southLeft___intersectionSW" to="intersectionN___northMiddle" depart="24" />    <trip id="northRight___eastBottom_25" type="car" from="northRight___intersectionNE" to="intersectionSE___eastBottom" depart="25" />    <trip id="westTop___eastBottom_25" type="car" from="westTop___intersectionNW" to="intersectionSE___eastBottom" depart="25" />    <trip id="northLeft___northRight_26" type="car" from="northLeft___intersectionNW" to="intersectionNE___northRight" depart="26" />    <trip id="southMiddle___northRight_27" type="car" from="southMiddle___intersectionS" to="intersectionNE___northRight" depart="27" />    <trip id="southLeft___northLeft_28" type="car" from="southLeft___intersectionSW" to="intersectionNW___northLeft" depart="28" />    <trip id="westTop___eastMiddle_28" type="car" from="westTop___intersectionNW" to="intersectionE___eastMiddle" depart="28" />    <trip id="northRight___southLeft_30" type="car" from="northRight___intersectionNE" to="intersectionSW___southLeft" depart="30" />    <trip id="eastMiddle___westMiddle_31" type="car" from="eastMiddle___intersectionE" to="intersectionW___westMiddle" depart="31" />    <trip id="eastBottom___southMiddle_34" type="car" from="eastBottom___intersectionSE" to="intersectionS___southMiddle" depart="34" />    <trip id="northMiddle___eastTop_35" type="car" from="northMiddle___intersectionN" to="intersectionNE___eastTop" depart="35" />    <trip id="westBottom___eastMiddle_35" type="car" from="westBottom___intersectionSW" to="intersectionE___eastMiddle" depart="35" />    <trip id="northMiddle___northRight_37" type="car" from="northMiddle___intersectionN" to="intersectionNE___northRight" depart="37" />    <trip id="southRight___eastTop_39" type="car" from="southRight___intersectionSE" to="intersectionNE___eastTop" depart="39" />    <trip id="eastBottom___westTop_40" type="car" from="eastBottom___intersectionSE" to="intersectionNW___westTop" depart="40" />    <trip id="northLeft___northMiddle_41" type="car" from="northLeft___intersectionNW" to="intersectionN___northMiddle" depart="41" />    <trip id="westTop___southRight_41" type="car" from="westTop___intersectionNW" to="intersectionSE___southRight" depart="41" />    <trip id="eastBottom___northLeft_42" type="car" from="eastBottom___intersectionSE" to="intersectionNW___northLeft" depart="42" />    <trip id="eastMiddle___northMiddle_42" type="car" from="eastMiddle___intersectionE" to="intersectionN___northMiddle" depart="42" />    <trip id="northRight___westBottom_45" type="car" from="northRight___intersectionNE" to="intersectionSW___westBottom" depart="45" />    <trip id="westTop___northLeft_46" type="car" from="westTop___intersectionNW" to="intersectionNW___northLeft" depart="46" />    <trip id="southLeft___eastMiddle_48" type="car" from="southLeft___intersectionSW" to="intersectionE___eastMiddle" depart="48" />    <trip id="eastTop___westMiddle_51" type="car" from="eastTop___intersectionNE" to="intersectionW___westMiddle" depart="51" />    <trip id="southRight___southLeft_52" type="car" from="southRight___intersectionSE" to="intersectionSW___southLeft" depart="52" />    <trip id="northMiddle___westTop_53" type="car" from="northMiddle___intersectionN" to="intersectionNW___westTop" depart="53" />    <trip id="southMiddle___eastMiddle_54" type="car" from="southMiddle___intersectionS" to="intersectionE___eastMiddle" depart="54" />    <trip id="westBottom___southRight_54" type="car" from="westBottom___intersectionSW" to="intersectionSE___southRight" depart="54" />    <trip id="southLeft___westTop_55" type="car" from="southLeft___intersectionSW" to="intersectionNW___westTop" depart="55" />    <trip id="westTop___westBottom_56" type="car" from="westTop___intersectionNW" to="intersectionSW___westBottom" depart="56" />    <trip id="westMiddle___southRight_57" type="car" from="westMiddle___intersectionW" to="intersectionSE___southRight" depart="57" />    <trip id="northMiddle___southMiddle_61" type="car" from="northMiddle___intersectionN" to="intersectionS___southMiddle" depart="61" />    <trip id="westBottom___southLeft_62" type="car" from="westBottom___intersectionSW" to="intersectionSW___southLeft" depart="62" />    <trip id="northMiddle___northLeft_66" type="car" from="northMiddle___intersectionN" to="intersectionNW___northLeft" depart="66" />    <trip id="westMiddle___westTop_66" type="car" from="westMiddle___intersectionW" to="intersectionNW___westTop" depart="66" />    <trip id="southMiddle___northRight_69" type="car" from="southMiddle___intersectionS" to="intersectionNE___northRight" depart="69" />    <trip id="eastMiddle___northLeft_71" type="car" from="eastMiddle___intersectionE" to="intersectionNW___northLeft" depart="71" />    <trip id="southRight___northMiddle_72" type="car" from="southRight___intersectionSE" to="intersectionN___northMiddle" depart="72" />    <trip id="northMiddle___northRight_79" type="car" from="northMiddle___intersectionN" to="intersectionNE___northRight" depart="79" />    <trip id="southMiddle___northLeft_79" type="car" from="southMiddle___intersectionS" to="intersectionNW___northLeft" depart="79" />    <trip id="westTop___eastBottom_79" type="car" from="westTop___intersectionNW" to="intersectionSE___eastBottom" depart="79" />    <trip id="southLeft___northRight_80" type="car" from="southLeft___intersectionSW" to="intersectionNE___northRight" depart="80" />    <trip id="westBottom___northLeft_81" type="car" from="westBottom___intersectionSW" to="intersectionNW___northLeft" depart="81" />    <trip id="westTop___eastBottom_82" type="car" from="westTop___intersectionNW" to="intersectionSE___eastBottom" depart="82" />    <trip id="westBottom___eastTop_90" type="car" from="westBottom___intersectionSW" to="intersectionNE___eastTop" depart="90" />    <trip id="westMiddle___northRight_90" type="car" from="westMiddle___intersectionW" to="intersectionNE___northRight" depart="90" />    <trip id="southRight___eastBottom_91" type="car" from="southRight___intersectionSE" to="intersectionSE___eastBottom" depart="91" />    <trip id="eastTop___southRight_95" type="car" from="eastTop___intersectionNE" to="intersectionSE___southRight" depart="95" />    <trip id="northMiddle___westMiddle_97" type="car" from="northMiddle___intersectionN" to="intersectionW___westMiddle" depart="97" />    <trip id="eastMiddle___eastBottom_100" type="car" from="eastMiddle___intersectionE" to="intersectionSE___eastBottom" depart="100" />    <trip id="northLeft___westBottom_100" type="car" from="northLeft___intersectionNW" to="intersectionSW___westBottom" depart="100" />    <trip id="northMiddle___northRight_100" type="car" from="northMiddle___intersectionN" to="intersectionNE___northRight" depart="100" />    <trip id="westMiddle___westTop_101" type="car" from="westMiddle___intersectionW" to="intersectionNW___westTop" depart="101" />    <trip id="eastTop___westTop_102" type="car" from="eastTop___intersectionNE" to="intersectionNW___westTop" depart="102" />    <trip id="northRight___eastBottom_104" type="car" from="northRight___intersectionNE" to="intersectionSE___eastBottom" depart="104" />    <trip id="westTop___northRight_106" type="car" from="westTop___intersectionNW" to="intersectionNE___northRight" depart="106" />    <trip id="eastBottom___westMiddle_107" type="car" from="eastBottom___intersectionSE" to="intersectionW___westMiddle" depart="107" />    <trip id="southLeft___southMiddle_107" type="car" from="southLeft___intersectionSW" to="intersectionS___southMiddle" depart="107" />    <trip id="westMiddle___eastTop_107" type="car" from="westMiddle___intersectionW" to="intersectionNE___eastTop" depart="107" />    <trip id="northRight___eastMiddle_109" type="car" from="northRight___intersectionNE" to="intersectionE___eastMiddle" depart="109" />    <trip id="eastTop___westBottom_113" type="car" from="eastTop___intersectionNE" to="intersectionSW___westBottom" depart="113" />    <trip id="northRight___northMiddle_113" type="car" from="northRight___intersectionNE" to="intersectionN___northMiddle" depart="113" />    <trip id="northMiddle___westMiddle_114" type="car" from="northMiddle___intersectionN" to="intersectionW___westMiddle" depart="114" />    <trip id="northRight___westMiddle_114" type="car" from="northRight___intersectionNE" to="intersectionW___westMiddle" depart="114" />    <trip id="southLeft___eastMiddle_116" type="car" from="southLeft___intersectionSW" to="intersectionE___eastMiddle" depart="116" />    <trip id="westBottom___westMiddle_116" type="car" from="westBottom___intersectionSW" to="intersectionW___westMiddle" depart="116" />    <trip id="westMiddle___southMiddle_117" type="car" from="westMiddle___intersectionW" to="intersectionS___southMiddle" depart="117" />    <trip id="westTop___northLeft_118" type="car" from="westTop___intersectionNW" to="intersectionNW___northLeft" depart="118" />    <trip id="southMiddle___eastBottom_119" type="car" from="southMiddle___intersectionS" to="intersectionSE___eastBottom" depart="119" />    <trip id="westBottom___northMiddle_119" type="car" from="westBottom___intersectionSW" to="intersectionN___northMiddle" depart="119" />    <trip id="eastBottom___northMiddle_121" type="car" from="eastBottom___intersectionSE" to="intersectionN___northMiddle" depart="121" />    <trip id="northRight___westTop_122" type="car" from="northRight___intersectionNE" to="intersectionNW___westTop" depart="122" />    <trip id="westBottom___southLeft_122" type="car" from="westBottom___intersectionSW" to="intersectionSW___southLeft" depart="122" />    <trip id="northRight___westMiddle_123" type="car" from="northRight___intersectionNE" to="intersectionW___westMiddle" depart="123" />    <trip id="southMiddle___northMiddle_123" type="car" from="southMiddle___intersectionS" to="intersectionN___northMiddle" depart="123" />    <trip id="northRight___southRight_126" type="car" from="northRight___intersectionNE" to="intersectionSE___southRight" depart="126" />    <trip id="southMiddle___northLeft_127" type="car" from="southMiddle___intersectionS" to="intersectionNW___northLeft" depart="127" />    <trip id="eastBottom___northLeft_129" type="car" from="eastBottom___intersectionSE" to="intersectionNW___northLeft" depart="129" />    <trip id="southRight___southMiddle_130" type="car" from="southRight___intersectionSE" to="intersectionS___southMiddle" depart="130" />    <trip id="eastMiddle___northRight_131" type="car" from="eastMiddle___intersectionE" to="intersectionNE___northRight" depart="131" />    <trip id="southLeft___westTop_131" type="car" from="southLeft___intersectionSW" to="intersectionNW___westTop" depart="131" />    <trip id="northRight___southLeft_132" type="car" from="northRight___intersectionNE" to="intersectionSW___southLeft" depart="132" />    <trip id="eastTop___westBottom_133" type="car" from="eastTop___intersectionNE" to="intersectionSW___westBottom" depart="133" />    <trip id="southRight___westTop_133" type="car" from="southRight___intersectionSE" to="intersectionNW___westTop" depart="133" />    <trip id="northRight___northMiddle_136" type="car" from="northRight___intersectionNE" to="intersectionN___northMiddle" depart="136" />    <trip id="westTop___northRight_136" type="car" from="westTop___intersectionNW" to="intersectionNE___northRight" depart="136" />    <trip id="eastBottom___southMiddle_137" type="car" from="eastBottom___intersectionSE" to="intersectionS___southMiddle" depart="137" />    <trip id="northRight___southLeft_137" type="car" from="northRight___intersectionNE" to="intersectionSW___southLeft" depart="137" />    <trip id="westTop___northRight_139" type="car" from="westTop___intersectionNW" to="intersectionNE___northRight" depart="139" />    <trip id="eastBottom___eastMiddle_140" type="car" from="eastBottom___intersectionSE" to="intersectionE___eastMiddle" depart="140" />    <trip id="westBottom___southMiddle_140" type="car" from="westBottom___intersectionSW" to="intersectionS___southMiddle" depart="140" />    <trip id="southRight___southLeft_141" type="car" from="southRight___intersectionSE" to="intersectionSW___southLeft" depart="141" />    <trip id="southRight___northLeft_142" type="car" from="southRight___intersectionSE" to="intersectionNW___northLeft" depart="142" />    <trip id="northRight___southRight_145" type="car" from="northRight___intersectionNE" to="intersectionSE___southRight" depart="145" />    <trip id="southMiddle___eastMiddle_146" type="car" from="southMiddle___intersectionS" to="intersectionE___eastMiddle" depart="146" />    <trip id="eastTop___northLeft_147" type="car" from="eastTop___intersectionNE" to="intersectionNW___northLeft" depart="147" />    <trip id="northLeft___eastTop_150" type="car" from="northLeft___intersectionNW" to="intersectionNE___eastTop" depart="150" />    <trip id="northLeft___northMiddle_153" type="car" from="northLeft___intersectionNW" to="intersectionN___northMiddle" depart="153" />    <trip id="southLeft___eastMiddle_155" type="car" from="southLeft___intersectionSW" to="intersectionE___eastMiddle" depart="155" />    <trip id="westTop___eastTop_155" type="car" from="westTop___intersectionNW" to="intersectionNE___eastTop" depart="155" />    <trip id="eastTop___northMiddle_160" type="car" from="eastTop___intersectionNE" to="intersectionN___northMiddle" depart="160" />    <trip id="eastBottom___northMiddle_165" type="car" from="eastBottom___intersectionSE" to="intersectionN___northMiddle" depart="165" />    <trip id="eastTop___westBottom_165" type="car" from="eastTop___intersectionNE" to="intersectionSW___westBottom" depart="165" />    <trip id="southLeft___eastBottom_166" type="car" from="southLeft___intersectionSW" to="intersectionSE___eastBottom" depart="166" />    <trip id="southMiddle___southLeft_167" type="car" from="southMiddle___intersectionS" to="intersectionSW___southLeft" depart="167" />    <trip id="southRight___northMiddle_167" type="car" from="southRight___intersectionSE" to="intersectionN___northMiddle" depart="167" />    <trip id="southMiddle___westMiddle_169" type="car" from="southMiddle___intersectionS" to="intersectionW___westMiddle" depart="169" />    <trip id="southRight___southLeft_173" type="car" from="southRight___intersectionSE" to="intersectionSW___southLeft" depart="173" />    <trip id="southLeft___northMiddle_174" type="car" from="southLeft___intersectionSW" to="intersectionN___northMiddle" depart="174" />    <trip id="eastTop___northMiddle_175" type="car" from="eastTop___intersectionNE" to="intersectionN___northMiddle" depart="175" />    <trip id="northRight___southRight_175" type="car" from="northRight___intersectionNE" to="intersectionSE___southRight" depart="175" />    <trip id="southMiddle___eastBottom_176" type="car" from="southMiddle___intersectionS" to="intersectionSE___eastBottom" depart="176" />    <trip id="westTop___northLeft_179" type="car" from="westTop___intersectionNW" to="intersectionNW___northLeft" depart="179" />    <trip id="eastBottom___westMiddle_183" type="car" from="eastBottom___intersectionSE" to="intersectionW___westMiddle" depart="183" />    <trip id="eastTop___northLeft_184" type="car" from="eastTop___intersectionNE" to="intersectionNW___northLeft" depart="184" />    <trip id="southMiddle___northMiddle_188" type="car" from="southMiddle___intersectionS" to="intersectionN___northMiddle" depart="188" />    <trip id="northLeft___westTop_189" type="car" from="northLeft___intersectionNW" to="intersectionNW___westTop" depart="189" />    <trip id="northLeft___eastMiddle_191" type="car" from="northLeft___intersectionNW" to="intersectionE___eastMiddle" depart="191" />    <trip id="eastTop___northLeft_192" type="car" from="eastTop___intersectionNE" to="intersectionNW___northLeft" depart="192" />    <trip id="westMiddle___westBottom_196" type="car" from="westMiddle___intersectionW" to="intersectionSW___westBottom" depart="196" />    <trip id="southLeft___westTop_197" type="car" from="southLeft___intersectionSW" to="intersectionNW___westTop" depart="197" />    <trip id="southRight___westMiddle_197" type="car" from="southRight___intersectionSE" to="intersectionW___westMiddle" depart="197" />    <trip id="westBottom___southLeft_198" type="car" from="westBottom___intersectionSW" to="intersectionSW___southLeft" depart="198" />    <trip id="westMiddle___northLeft_198" type="car" from="westMiddle___intersectionW" to="intersectionNW___northLeft" depart="198" />    <trip id="westBottom___eastTop_199" type="car" from="westBottom___intersectionSW" to="intersectionNE___eastTop" depart="199" />    <trip id="southLeft___northRight_203" type="car" from="southLeft___intersectionSW" to="intersectionNE___northRight" depart="203" />    <trip id="westBottom___northLeft_204" type="car" from="westBottom___intersectionSW" to="intersectionNW___northLeft" depart="204" />    <trip id="eastTop___southMiddle_205" type="car" from="eastTop___intersectionNE" to="intersectionS___southMiddle" depart="205" />    <trip id="northRight___southRight_205" type="car" from="northRight___intersectionNE" to="intersectionSE___southRight" depart="205" />    <trip id="eastTop___westMiddle_207" type="car" from="eastTop___intersectionNE" to="intersectionW___westMiddle" depart="207" />    <trip id="eastMiddle___southLeft_210" type="car" from="eastMiddle___intersectionE" to="intersectionSW___southLeft" depart="210" />    <trip id="northLeft___westMiddle_212" type="car" from="northLeft___intersectionNW" to="intersectionW___westMiddle" depart="212" />    <trip id="westMiddle___eastMiddle_212" type="car" from="westMiddle___intersectionW" to="intersectionE___eastMiddle" depart="212" />    <trip id="eastBottom___southLeft_213" type="car" from="eastBottom___intersectionSE" to="intersectionSW___southLeft" depart="213" />    <trip id="northMiddle___eastTop_213" type="car" from="northMiddle___intersectionN" to="intersectionNE___eastTop" depart="213" />    <trip id="eastTop___southRight_215" type="car" from="eastTop___intersectionNE" to="intersectionSE___southRight" depart="215" />    <trip id="northLeft___southMiddle_217" type="car" from="northLeft___intersectionNW" to="intersectionS___southMiddle" depart="217" />    <trip id="southMiddle___northMiddle_220" type="car" from="southMiddle___intersectionS" to="intersectionN___northMiddle" depart="220" />    <trip id="eastBottom___westMiddle_221" type="car" from="eastBottom___intersectionSE" to="intersectionW___westMiddle" depart="221" />    <trip id="southLeft___northLeft_225" type="car" from="southLeft___intersectionSW" to="intersectionNW___northLeft" depart="225" />    <trip id="southRight___eastBottom_225" type="car" from="southRight___intersectionSE" to="intersectionSE___eastBottom" depart="225" />    <trip id="eastBottom___westMiddle_226" type="car" from="eastBottom___intersectionSE" to="intersectionW___westMiddle" depart="226" />    <trip id="northLeft___southLeft_227" type="car" from="northLeft___intersectionNW" to="intersectionSW___southLeft" depart="227" />    <trip id="southRight___westMiddle_227" type="car" from="southRight___intersectionSE" to="intersectionW___westMiddle" depart="227" />    <trip id="eastTop___southLeft_228" type="car" from="eastTop___intersectionNE" to="intersectionSW___southLeft" depart="228" />    <trip id="eastBottom___northMiddle_229" type="car" from="eastBottom___intersectionSE" to="intersectionN___northMiddle" depart="229" />    <trip id="eastTop___northLeft_229" type="car" from="eastTop___intersectionNE" to="intersectionNW___northLeft" depart="229" />    <trip id="northRight___eastBottom_235" type="car" from="northRight___intersectionNE" to="intersectionSE___eastBottom" depart="235" />    <trip id="westTop___eastBottom_237" type="car" from="westTop___intersectionNW" to="intersectionSE___eastBottom" depart="237" />    <trip id="eastBottom___southLeft_238" type="car" from="eastBottom___intersectionSE" to="intersectionSW___southLeft" depart="238" />    <trip id="eastTop___westMiddle_238" type="car" from="eastTop___intersectionNE" to="intersectionW___westMiddle" depart="238" />    <trip id="northMiddle___eastMiddle_239" type="car" from="northMiddle___intersectionN" to="intersectionE___eastMiddle" depart="239" />    <trip id="southMiddle___westMiddle_239" type="car" from="southMiddle___intersectionS" to="intersectionW___westMiddle" depart="239" />    <trip id="eastTop___northMiddle_241" type="car" from="eastTop___intersectionNE" to="intersectionN___northMiddle" depart="241" />    <trip id="westMiddle___northMiddle_242" type="car" from="westMiddle___intersectionW" to="intersectionN___northMiddle" depart="242" />    <trip id="northRight___eastBottom_244" type="car" from="northRight___intersectionNE" to="intersectionSE___eastBottom" depart="244" />    <trip id="southLeft___eastBottom_244" type="car" from="southLeft___intersectionSW" to="intersectionSE___eastBottom" depart="244" />    <trip id="southMiddle___eastBottom_248" type="car" from="southMiddle___intersectionS" to="intersectionSE___eastBottom" depart="248" />    <trip id="southRight___northLeft_248" type="car" from="southRight___intersectionSE" to="intersectionNW___northLeft" depart="248" />    <trip id="southRight___northMiddle_251" type="car" from="southRight___intersectionSE" to="intersectionN___northMiddle" depart="251" />    <trip id="eastMiddle___northLeft_253" type="car" from="eastMiddle___intersectionE" to="intersectionNW___northLeft" depart="253" />    <trip id="southRight___westMiddle_259" type="car" from="southRight___intersectionSE" to="intersectionW___westMiddle" depart="259" />    <trip id="westMiddle___westTop_261" type="car" from="westMiddle___intersectionW" to="intersectionNW___westTop" depart="261" />    <trip id="westTop___eastMiddle_264" type="car" from="westTop___intersectionNW" to="intersectionE___eastMiddle" depart="264" />    <trip id="westMiddle___westBottom_266" type="car" from="westMiddle___intersectionW" to="intersectionSW___westBottom" depart="266" />    <trip id="westTop___northLeft_269" type="car" from="westTop___intersectionNW" to="intersectionNW___northLeft" depart="269" />    <trip id="southRight___southLeft_271" type="car" from="southRight___intersectionSE" to="intersectionSW___southLeft" depart="271" />    <trip id="westBottom___eastTop_271" type="car" from="westBottom___intersectionSW" to="intersectionNE___eastTop" depart="271" />    <trip id="northRight___eastBottom_272" type="car" from="northRight___intersectionNE" to="intersectionSE___eastBottom" depart="272" />    <trip id="southRight___westMiddle_272" type="car" from="southRight___intersectionSE" to="intersectionW___westMiddle" depart="272" />    <trip id="southMiddle___eastMiddle_274" type="car" from="southMiddle___intersectionS" to="intersectionE___eastMiddle" depart="274" />    <trip id="southRight___westBottom_274" type="car" from="southRight___intersectionSE" to="intersectionSW___westBottom" depart="274" />    <trip id="eastMiddle___eastBottom_275" type="car" from="eastMiddle___intersectionE" to="intersectionSE___eastBottom" depart="275" />    <trip id="westBottom___eastTop_277" type="car" from="westBottom___intersectionSW" to="intersectionNE___eastTop" depart="277" />    <trip id="southLeft___northLeft_281" type="car" from="southLeft___intersectionSW" to="intersectionNW___northLeft" depart="281" />    <trip id="eastTop___northRight_283" type="car" from="eastTop___intersectionNE" to="intersectionNE___northRight" depart="283" />    <trip id="southRight___northRight_284" type="car" from="southRight___intersectionSE" to="intersectionNE___northRight" depart="284" />    <trip id="westTop___northRight_285" type="car" from="westTop___intersectionNW" to="intersectionNE___northRight" depart="285" />    <trip id="northRight___southMiddle_286" type="car" from="northRight___intersectionNE" to="intersectionS___southMiddle" depart="286" />    <trip id="westBottom___westMiddle_290" type="car" from="westBottom___intersectionSW" to="intersectionW___westMiddle" depart="290" />    <trip id="westBottom___northLeft_297" type="car" from="westBottom___intersectionSW" to="intersectionNW___northLeft" depart="297" />    <trip id="southLeft___eastBottom_298" type="car" from="southLeft___intersectionSW" to="intersectionSE___eastBottom" depart="298" />    <trip id="eastMiddle___westBottom_300" type="car" from="eastMiddle___intersectionE" to="intersectionSW___westBottom" depart="300" />    <trip id="eastTop___southRight_300" type="car" from="eastTop___intersectionNE" to="intersectionSE___southRight" depart="300" />    <trip id="northLeft___eastBottom_300" type="car" from="northLeft___intersectionNW" to="intersectionSE___eastBottom" depart="300" />    <trip id="southLeft___eastBottom_304" type="car" from="southLeft___intersectionSW" to="intersectionSE___eastBottom" depart="304" />    <trip id="southRight___westBottom_304" type="car" from="southRight___intersectionSE" to="intersectionSW___westBottom" depart="304" />    <trip id="northLeft___southMiddle_305" type="car" from="northLeft___intersectionNW" to="intersectionS___southMiddle" depart="305" />    <trip id="southMiddle___eastMiddle_305" type="car" from="southMiddle___intersectionS" to="intersectionE___eastMiddle" depart="305" />    <trip id="southRight___southMiddle_305" type="car" from="southRight___intersectionSE" to="intersectionS___southMiddle" depart="305" />    <trip id="northMiddle___westTop_306" type="car" from="northMiddle___intersectionN" to="intersectionNW___westTop" depart="306" />    <trip id="northLeft___southRight_307" type="car" from="northLeft___intersectionNW" to="intersectionSE___southRight" depart="307" />    <trip id="northMiddle___southMiddle_309" type="car" from="northMiddle___intersectionN" to="intersectionS___southMiddle" depart="309" />    <trip id="northRight___eastBottom_309" type="car" from="northRight___intersectionNE" to="intersectionSE___eastBottom" depart="309" />    <trip id="southRight___westBottom_309" type="car" from="southRight___intersectionSE" to="intersectionSW___westBottom" depart="309" />    <trip id="eastBottom___southMiddle_310" type="car" from="eastBottom___intersectionSE" to="intersectionS___southMiddle" depart="310" />    <trip id="eastBottom___southLeft_311" type="car" from="eastBottom___intersectionSE" to="intersectionSW___southLeft" depart="311" />    <trip id="southMiddle___westTop_311" type="car" from="southMiddle___intersectionS" to="intersectionNW___westTop" depart="311" />    <trip id="southRight___southLeft_312" type="car" from="southRight___intersectionSE" to="intersectionSW___southLeft" depart="312" />    <trip id="northRight___eastBottom_313" type="car" from="northRight___intersectionNE" to="intersectionSE___eastBottom" depart="313" />    <trip id="southLeft___southMiddle_314" type="car" from="southLeft___intersectionSW" to="intersectionS___southMiddle" depart="314" />    <trip id="southRight___westTop_314" type="car" from="southRight___intersectionSE" to="intersectionNW___westTop" depart="314" />    <trip id="southLeft___northRight_315" type="car" from="southLeft___intersectionSW" to="intersectionNE___northRight" depart="315" />   