
        <routes>
            <vType id="car" accel="0.8" decel="4.5" sigma="0.5" length="5" minGap="2.5" maxSpeed="15" guiShape="passenger"/>
            <trip id="northThree___northOne_1" type="car" from="northThree___intersectionThree" to="intersectionOne___northOne" depart="1" />    <trip id="westOne___southOne_1" type="car" from="westOne___intersectionOne" to="intersectionThirteen___southOne" depart="1" />    <trip id="southOne___eastThree_2" type="car" from="southOne___intersectionThirteen" to="intersectionTwelve___eastThree" depart="2" />    <trip id="eastThree___southTwo_3" type="car" from="eastThree___intersectionTwelve" to="intersectionFourteen___southTwo" depart="3" />    <trip id="westThree___southThree_4" type="car" from="westThree___intersectionNine" to="intersectionFifthteen___southThree" depart="4" />    <trip id="westThree___southFour_5" type="car" from="westThree___intersectionNine" to="intersectionSixteen___southFour" depart="5" />    <trip id="northOne___southOne_7" type="car" from="northOne___intersectionOne" to="intersectionThirteen___southOne" depart="7" />    <trip id="southOne___westFour_7" type="car" from="southOne___intersectionThirteen" to="intersectionThirteen___westFour" depart="7" />    <trip id="southThree___northThree_9" type="car" from="southThree___intersectionFifthteen" to="intersectionThree___northThree" depart="9" />    <trip id="westTwo___southTwo_9" type="car" from="westTwo___intersectionFive" to="intersectionFourteen___southTwo" depart="9" />    <trip id="eastOne___eastThree_11" type="car" from="eastOne___intersectionFour" to="intersectionTwelve___eastThree" depart="11" />    <trip id="westTwo___eastOne_11" type="car" from="westTwo___intersectionFive" to="intersectionFour___eastOne" depart="11" />    <trip id="southThree___westThree_13" type="car" from="southThree___intersectionFifthteen" to="intersectionNine___westThree" depart="13" />    <trip id="northOne___westFour_14" type="car" from="northOne___intersectionOne" to="intersectionThirteen___westFour" depart="14" />    <trip id="eastOne___northFour_15" type="car" from="eastOne___intersectionFour" to="intersectionFour___northFour" depart="15" />    <trip id="southTwo___westOne_15" type="car" from="southTwo___intersectionFourteen" to="intersectionOne___westOne" depart="15" />    <trip id="southThree___southFour_18" type="car" from="southThree___intersectionFifthteen" to="intersectionSixteen___southFour" depart="18" />    <trip id="eastFour___eastThree_19" type="car" from="eastFour___intersectionSixteen" to="intersectionTwelve___eastThree" depart="19" />    <trip id="eastThree___northOne_21" type="car" from="eastThree___intersectionTwelve" to="intersectionOne___northOne" depart="21" />    <trip id="southTwo___northTwo_22" type="car" from="southTwo___intersectionFourteen" to="intersectionTwo___northTwo" depart="22" />    <trip id="northFour___westOne_23" type="car" from="northFour___intersectionFour" to="intersectionOne___westOne" depart="23" />    <trip id="northOne___eastOne_23" type="car" from="northOne___intersectionOne" to="intersectionFour___eastOne" depart="23" />    <trip id="southOne___westTwo_23" type="car" from="southOne___intersectionThirteen" to="intersectionFive___westTwo" depart="23" />    <trip id="southTwo___eastFour_24" type="car" from="southTwo___intersectionFourteen" to="intersectionSixteen___eastFour" depart="24" />    <trip id="eastFour___northFour_25" type="car" from="eastFour___intersectionSixteen" to="intersectionFour___northFour" depart="25" />    <trip id="westThree___westOne_25" type="car" from="westThree___intersectionNine" to="intersectionOne___westOne" depart="25" />    <trip id="westOne___eastTwo_26" type="car" from="westOne___intersectionOne" to="intersectionEight___eastTwo" depart="26" />    <trip id="southOne___westThree_28" type="car" from="southOne___intersectionThirteen" to="intersectionNine___westThree" depart="28" />    <trip id="westThree___eastTwo_29" type="car" from="westThree___intersectionNine" to="intersectionEight___eastTwo" depart="29" />    <trip id="northFour___southTwo_30" type="car" from="northFour___intersectionFour" to="intersectionFourteen___southTwo" depart="30" />    <trip id="eastTwo___westOne_32" type="car" from="eastTwo___intersectionEight" to="intersectionOne___westOne" depart="32" />    <trip id="northFour___southFour_32" type="car" from="northFour___intersectionFour" to="intersectionSixteen___southFour" depart="32" />    <trip id="southThree___eastOne_33" type="car" from="southThree___intersectionFifthteen" to="intersectionFour___eastOne" depart="33" />    <trip id="southTwo___northThree_33" type="car" from="southTwo___intersectionFourteen" to="intersectionThree___northThree" depart="33" />    <trip id="westTwo___eastThree_33" type="car" from="westTwo___intersectionFive" to="intersectionTwelve___eastThree" depart="33" />    <trip id="eastFour___westFour_34" type="car" from="eastFour___intersectionSixteen" to="intersectionThirteen___westFour" depart="34" />    <trip id="westOne___northFour_34" type="car" from="westOne___intersectionOne" to="intersectionFour___northFour" depart="34" />    <trip id="eastFour___southThree_40" type="car" from="eastFour___intersectionSixteen" to="intersectionFifthteen___southThree" depart="40" />    <trip id="eastThree___northFour_41" type="car" from="eastThree___intersectionTwelve" to="intersectionFour___northFour" depart="41" />    <trip id="southFour___eastTwo_41" type="car" from="southFour___intersectionSixteen" to="intersectionEight___eastTwo" depart="41" />    <trip id="southTwo___southFour_43" type="car" from="southTwo___intersectionFourteen" to="intersectionSixteen___southFour" depart="43" />    <trip id="westThree___westFour_43" type="car" from="westThree___intersectionNine" to="intersectionThirteen___westFour" depart="43" />    <trip id="southThree___eastFour_47" type="car" from="southThree___intersectionFifthteen" to="intersectionSixteen___eastFour" depart="47" />    <trip id="westFour___westOne_47" type="car" from="westFour___intersectionThirteen" to="intersectionOne___westOne" depart="47" />    <trip id="southFour___eastFour_49" type="car" from="southFour___intersectionSixteen" to="intersectionSixteen___eastFour" depart="49" />    <trip id="westOne___northThree_49" type="car" from="westOne___intersectionOne" to="intersectionThree___northThree" depart="49" />    <trip id="eastTwo___westFour_50" type="car" from="eastTwo___intersectionEight" to="intersectionThirteen___westFour" depart="50" />    <trip id="northFour___northOne_52" type="car" from="northFour___intersectionFour" to="intersectionOne___northOne" depart="52" />    <trip id="westThree___southTwo_52" type="car" from="westThree___intersectionNine" to="intersectionFourteen___southTwo" depart="52" />    <trip id="eastOne___westFour_54" type="car" from="eastOne___intersectionFour" to="intersectionThirteen___westFour" depart="54" />    <trip id="northOne___eastOne_54" type="car" from="northOne___intersectionOne" to="intersectionFour___eastOne" depart="54" />    <trip id="southOne___northOne_54" type="car" from="southOne___intersectionThirteen" to="intersectionOne___northOne" depart="54" />    <trip id="northFour___eastTwo_55" type="car" from="northFour___intersectionFour" to="intersectionEight___eastTwo" depart="55" />    <trip id="southTwo___northThree_55" type="car" from="southTwo___intersectionFourteen" to="intersectionThree___northThree" depart="55" />    <trip id="eastFour___eastTwo_56" type="car" from="eastFour___intersectionSixteen" to="intersectionEight___eastTwo" depart="56" />    <trip id="eastThree___southFour_57" type="car" from="eastThree___intersectionTwelve" to="intersectionSixteen___southFour" depart="57" />    <trip id="northThree___westOne_57" type="car" from="northThree___intersectionThree" to="intersectionOne___westOne" depart="57" />    <trip id="westTwo___eastOne_58" type="car" from="westTwo___intersectionFive" to="intersectionFour___eastOne" depart="58" />    <trip id="southThree___eastOne_60" type="car" from="southThree___intersectionFifthteen" to="intersectionFour___eastOne" depart="60" />    <trip id="southTwo___northTwo_61" type="car" from="southTwo___intersectionFourteen" to="intersectionTwo___northTwo" depart="61" />    <trip id="southOne___northThree_62" type="car" from="southOne___intersectionThirteen" to="intersectionThree___northThree" depart="62" />    <trip id="northThree___westOne_65" type="car" from="northThree___intersectionThree" to="intersectionOne___westOne" depart="65" />    <trip id="southFour___westThree_65" type="car" from="southFour___intersectionSixteen" to="intersectionNine___westThree" depart="65" />    <trip id="eastThree___southOne_66" type="car" from="eastThree___intersectionTwelve" to="intersectionThirteen___southOne" depart="66" />    <trip id="southThree___northThree_66" type="car" from="southThree___intersectionFifthteen" to="intersectionThree___northThree" depart="66" />    <trip id="westFour___northFour_66" type="car" from="westFour___intersectionThirteen" to="intersectionFour___northFour" depart="66" />    <trip id="westFour___eastFour_67" type="car" from="westFour___intersectionThirteen" to="intersectionSixteen___eastFour" depart="67" />    <trip id="southThree___eastFour_69" type="car" from="southThree___intersectionFifthteen" to="intersectionSixteen___eastFour" depart="69" />    <trip id="northTwo___eastThree_74" type="car" from="northTwo___intersectionTwo" to="intersectionTwelve___eastThree" depart="74" />    <trip id="westOne___northOne_74" type="car" from="westOne___intersectionOne" to="intersectionOne___northOne" depart="74" />    <trip id="eastOne___southFour_75" type="car" from="eastOne___intersectionFour" to="intersectionSixteen___southFour" depart="75" />    <trip id="southTwo___eastTwo_76" type="car" from="southTwo___intersectionFourteen" to="intersectionEight___eastTwo" depart="76" />    <trip id="eastThree___southFour_78" type="car" from="eastThree___intersectionTwelve" to="intersectionSixteen___southFour" depart="78" />    <trip id="southThree___eastTwo_78" type="car" from="southThree___intersectionFifthteen" to="intersectionEight___eastTwo" depart="78" />    <trip id="westOne___eastTwo_79" type="car" from="westOne___intersectionOne" to="intersectionEight___eastTwo" depart="79" />    <trip id="westThree___eastOne_82" type="car" from="westThree___intersectionNine" to="intersectionFour___eastOne" depart="82" />    <trip id="eastTwo___westTwo_83" type="car" from="eastTwo___intersectionEight" to="intersectionFive___westTwo" depart="83" />    <trip id="southFour___northThree_85" type="car" from="southFour___intersectionSixteen" to="intersectionThree___northThree" depart="85" />    <trip id="westThree___eastTwo_86" type="car" from="westThree___intersectionNine" to="intersectionEight___eastTwo" depart="86" />    <trip id="northFour___eastFour_88" type="car" from="northFour___intersectionFour" to="intersectionSixteen___eastFour" depart="88" />    <trip id="westFour___westTwo_90" type="car" from="westFour___intersectionThirteen" to="intersectionFive___westTwo" depart="90" />    <trip id="northTwo___northFour_92" type="car" from="northTwo___intersectionTwo" to="intersectionFour___northFour" depart="92" />    <trip id="eastFour___westFour_93" type="car" from="eastFour___intersectionSixteen" to="intersectionThirteen___westFour" depart="93" />    <trip id="southThree___northThree_93" type="car" from="southThree___intersectionFifthteen" to="intersectionThree___northThree" depart="93" />    <trip id="westTwo___southOne_94" type="car" from="westTwo___intersectionFive" to="intersectionThirteen___southOne" depart="94" />    <trip id="northThree___westOne_95" type="car" from="northThree___intersectionThree" to="intersectionOne___westOne" depart="95" />    <trip id="westTwo___northTwo_95" type="car" from="westTwo___intersectionFive" to="intersectionTwo___northTwo" depart="95" />    <trip id="southFour___southOne_96" type="car" from="southFour___intersectionSixteen" to="intersectionThirteen___southOne" depart="96" />    <trip id="westFour___eastTwo_96" type="car" from="westFour___intersectionThirteen" to="intersectionEight___eastTwo" depart="96" />    <trip id="southThree___southOne_97" type="car" from="southThree___intersectionFifthteen" to="intersectionThirteen___southOne" depart="97" />    <trip id="southOne___westFour_98" type="car" from="southOne___intersectionThirteen" to="intersectionThirteen___westFour" depart="98" />    <trip id="eastFour___eastOne_101" type="car" from="eastFour___intersectionSixteen" to="intersectionFour___eastOne" depart="101" />    <trip id="northThree___westThree_102" type="car" from="northThree___intersectionThree" to="intersectionNine___westThree" depart="102" />    <trip id="eastFour___westOne_103" type="car" from="eastFour___intersectionSixteen" to="intersectionOne___westOne" depart="103" />    <trip id="westFour___southOne_104" type="car" from="westFour___intersectionThirteen" to="intersectionThirteen___southOne" depart="104" />    <trip id="westOne___southOne_104" type="car" from="westOne___intersectionOne" to="intersectionThirteen___southOne" depart="104" />    <trip id="eastFour___northTwo_105" type="car" from="eastFour___intersectionSixteen" to="intersectionTwo___northTwo" depart="105" />    <trip id="eastTwo___westThree_105" type="car" from="eastTwo___intersectionEight" to="intersectionNine___westThree" depart="105" />    <trip id="westThree___eastOne_106" type="car" from="westThree___intersectionNine" to="intersectionFour___eastOne" depart="106" />    <trip id="westTwo___northOne_106" type="car" from="westTwo___intersectionFive" to="intersectionOne___northOne" depart="106" />    <trip id="eastFour___southOne_108" type="car" from="eastFour___intersectionSixteen" to="intersectionThirteen___southOne" depart="108" />    <trip id="westTwo___southFour_108" type="car" from="westTwo___intersectionFive" to="intersectionSixteen___southFour" depart="108" />    <trip id="northThree___southThree_110" type="car" from="northThree___intersectionThree" to="intersectionFifthteen___southThree" depart="110" />    <trip id="southThree___westFour_111" type="car" from="southThree___intersectionFifthteen" to="intersectionThirteen___westFour" depart="111" />    <trip id="southOne___westTwo_112" type="car" from="southOne___intersectionThirteen" to="intersectionFive___westTwo" depart="112" />    <trip id="westOne___southFour_112" type="car" from="westOne___intersectionOne" to="intersectionSixteen___southFour" depart="112" />    <trip id="eastFour___westTwo_113" type="car" from="eastFour___intersectionSixteen" to="intersectionFive___westTwo" depart="113" />    <trip id="southThree___eastOne_114" type="car" from="southThree___intersectionFifthteen" to="intersectionFour___eastOne" depart="114" />    <trip id="southOne___northTwo_115" type="car" from="southOne___intersectionThirteen" to="intersectionTwo___northTwo" depart="115" />    <trip id="northFour___eastOne_118" type="car" from="northFour___intersectionFour" to="intersectionFour___eastOne" depart="118" />    <trip id="northOne___westThree_120" type="car" from="northOne___intersectionOne" to="intersectionNine___westThree" depart="120" />    <trip id="southFour___eastOne_125" type="car" from="southFour___intersectionSixteen" to="intersectionFour___eastOne" depart="125" />    <trip id="westTwo___westFour_127" type="car" from="westTwo___intersectionFive" to="intersectionThirteen___westFour" depart="127" />    <trip id="southTwo___eastThree_128" type="car" from="southTwo___intersectionFourteen" to="intersectionTwelve___eastThree" depart="128" />    <trip id="southThree___westOne_129" type="car" from="southThree___intersectionFifthteen" to="intersectionOne___westOne" depart="129" />    <trip id="eastOne___northFour_134" type="car" from="eastOne___intersectionFour" to="intersectionFour___northFour" depart="134" />    <trip id="westThree___northOne_134" type="car" from="westThree___intersectionNine" to="intersectionOne___northOne" depart="134" />    <trip id="eastTwo___eastFour_139" type="car" from="eastTwo___intersectionEight" to="intersectionSixteen___eastFour" depart="139" />    <trip id="westFour___northFour_142" type="car" from="westFour___intersectionThirteen" to="intersectionFour___northFour" depart="142" />    <trip id="northOne___southThree_144" type="car" from="northOne___intersectionOne" to="intersectionFifthteen___southThree" depart="144" />    <trip id="eastFour___westThree_145" type="car" from="eastFour___intersectionSixteen" to="intersectionNine___westThree" depart="145" />    <trip id="southOne___northOne_146" type="car" from="southOne___intersectionThirteen" to="intersectionOne___northOne" depart="146" />    <trip id="westTwo___southThree_148" type="car" from="westTwo___intersectionFive" to="intersectionFifthteen___southThree" depart="148" />    <trip id="northTwo___northFour_149" type="car" from="northTwo___intersectionTwo" to="intersectionFour___northFour" depart="149" />    <trip id="northTwo___westFour_154" type="car" from="northTwo___intersectionTwo" to="intersectionThirteen___westFour" depart="154" />    <trip id="westOne___northFour_154" type="car" from="westOne___intersectionOne" to="intersectionFour___northFour" depart="154" />    <trip id="eastOne___westThree_155" type="car" from="eastOne___intersectionFour" to="intersectionNine___westThree" depart="155" />    <trip id="southThree___eastTwo_158" type="car" from="southThree___intersectionFifthteen" to="intersectionEight___eastTwo" depart="158" />    <trip id="northThree___southOne_161" type="car" from="northThree___intersectionThree" to="intersectionThirteen___southOne" depart="161" />    <trip id="northThree___eastFour_163" type="car" from="northThree___intersectionThree" to="intersectionSixteen___eastFour" depart="163" />    <trip id="southThree___northThree_163" type="car" from="southThree___intersectionFifthteen" to="intersectionThree___northThree" depart="163" />    <trip id="eastOne___westTwo_164" type="car" from="eastOne___intersectionFour" to="intersectionFive___westTwo" depart="164" />    <trip id="eastTwo___northOne_164" type="car" from="eastTwo___intersectionEight" to="intersectionOne___northOne" depart="164" />    <trip id="northTwo___southTwo_165" type="car" from="northTwo___intersectionTwo" to="intersectionFourteen___southTwo" depart="165" />    <trip id="eastFour___northThree_166" type="car" from="eastFour___intersectionSixteen" to="intersectionThree___northThree" depart="166" />    <trip id="southThree___southOne_166" type="car" from="southThree___intersectionFifthteen" to="intersectionThirteen___southOne" depart="166" />    <trip id="eastFour___westOne_168" type="car" from="eastFour___intersectionSixteen" to="intersectionOne___westOne" depart="168" />    <trip id="eastThree___eastOne_168" type="car" from="eastThree___intersectionTwelve" to="intersectionFour___eastOne" depart="168" />    <trip id="northFour___eastThree_168" type="car" from="northFour___intersectionFour" to="intersectionTwelve___eastThree" depart="168" />    <trip id="westThree___northFour_168" type="car" from="westThree___intersectionNine" to="intersectionFour___northFour" depart="168" />    <trip id="northTwo___eastFour_170" type="car" from="northTwo___intersectionTwo" to="intersectionSixteen___eastFour" depart="170" />    <trip id="northOne___northTwo_171" type="car" from="northOne___intersectionOne" to="intersectionTwo___northTwo" depart="171" />    <trip id="westTwo___westFour_171" type="car" from="westTwo___intersectionFive" to="intersectionThirteen___westFour" depart="171" />    <trip id="northThree___westThree_172" type="car" from="northThree___intersectionThree" to="intersectionNine___westThree" depart="172" />    <trip id="eastFour___northTwo_175" type="car" from="eastFour___intersectionSixteen" to="intersectionTwo___northTwo" depart="175" />    <trip id="eastThree___northThree_176" type="car" from="eastThree___intersectionTwelve" to="intersectionThree___northThree" depart="176" />    <trip id="southThree___northTwo_176" type="car" from="southThree___intersectionFifthteen" to="intersectionTwo___northTwo" depart="176" />    <trip id="northThree___eastOne_177" type="car" from="northThree___intersectionThree" to="intersectionFour___eastOne" depart="177" />    <trip id="eastThree___northThree_180" type="car" from="eastThree___intersectionTwelve" to="intersectionThree___northThree" depart="180" />    <trip id="southTwo___southThree_181" type="car" from="southTwo___intersectionFourteen" to="intersectionFifthteen___southThree" depart="181" />    <trip id="southTwo___westOne_182" type="car" from="southTwo___intersectionFourteen" to="intersectionOne___westOne" depart="182" />    <trip id="westTwo___eastFour_182" type="car" from="westTwo___intersectionFive" to="intersectionSixteen___eastFour" depart="182" />    <trip id="northThree___westThree_186" type="car" from="northThree___intersectionThree" to="intersectionNine___westThree" depart="186" />    <trip id="northOne___southThree_187" type="car" from="northOne___intersectionOne" to="intersectionFifthteen___southThree" depart="187" />    <trip id="westThree___northThree_188" type="car" from="westThree___intersectionNine" to="intersectionThree___northThree" depart="188" />    <trip id="northFour___southOne_189" type="car" from="northFour___intersectionFour" to="intersectionThirteen___southOne" depart="189" />    <trip id="northTwo___southOne_189" type="car" from="northTwo___intersectionTwo" to="intersectionThirteen___southOne" depart="189" />    <trip id="southTwo___eastThree_190" type="car" from="southTwo___intersectionFourteen" to="intersectionTwelve___eastThree" depart="190" />    <trip id="southOne___northTwo_191" type="car" from="southOne___intersectionThirteen" to="intersectionTwo___northTwo" depart="191" />    <trip id="northTwo___eastTwo_192" type="car" from="northTwo___intersectionTwo" to="intersectionEight___eastTwo" depart="192" />    <trip id="westFour___southThree_192" type="car" from="westFour___intersectionThirteen" to="intersectionFifthteen___southThree" depart="192" />    <trip id="northFour___westFour_195" type="car" from="northFour___intersectionFour" to="intersectionThirteen___westFour" depart="195" />    <trip id="northOne___southOne_195" type="car" from="northOne___intersectionOne" to="intersectionThirteen___southOne" depart="195" />    <trip id="northThree___eastOne_195" type="car" from="northThree___intersectionThree" to="intersectionFour___eastOne" depart="195" />    <trip id="southFour___southTwo_196" type="car" from="southFour___intersectionSixteen" to="intersectionFourteen___southTwo" depart="196" />    <trip id="westThree___southThree_196" type="car" from="westThree___intersectionNine" to="intersectionFifthteen___southThree" depart="196" />    <trip id="westTwo___southOne_196" type="car" from="westTwo___intersectionFive" to="intersectionThirteen___southOne" depart="196" />    <trip id="northThree___eastThree_198" type="car" from="northThree___intersectionThree" to="intersectionTwelve___eastThree" depart="198" />    <trip id="southTwo___northThree_198" type="car" from="southTwo___intersectionFourteen" to="intersectionThree___northThree" depart="198" />    <trip id="eastTwo___westTwo_203" type="car" from="eastTwo___intersectionEight" to="intersectionFive___westTwo" depart="203" />    <trip id="eastThree___eastOne_205" type="car" from="eastThree___intersectionTwelve" to="intersectionFour___eastOne" depart="205" />    <trip id="westFour___southThree_205" type="car" from="westFour___intersectionThirteen" to="intersectionFifthteen___southThree" depart="205" />    <trip id="southOne___northTwo_206" type="car" from="southOne___intersectionThirteen" to="intersectionTwo___northTwo" depart="206" />    <trip id="southOne___westOne_207" type="car" from="southOne___intersectionThirteen" to="intersectionOne___westOne" depart="207" />    <trip id="southFour___southTwo_209" type="car" from="southFour___intersectionSixteen" to="intersectionFourteen___southTwo" depart="209" />    <trip id="eastFour___northOne_211" type="car" from="eastFour___intersectionSixteen" to="intersectionOne___northOne" depart="211" />    <trip id="northOne___northThree_211" type="car" from="northOne___intersectionOne" to="intersectionThree___northThree" depart="211" />    <trip id="southTwo___eastTwo_212" type="car" from="southTwo___intersectionFourteen" to="intersectionEight___eastTwo" depart="212" />    <trip id="southFour___westOne_213" type="car" from="southFour___intersectionSixteen" to="intersectionOne___westOne" depart="213" />    <trip id="westTwo___eastTwo_214" type="car" from="westTwo___intersectionFive" to="intersectionEight___eastTwo" depart="214" />    <trip id="westTwo___southFour_215" type="car" from="westTwo___intersectionFive" to="intersectionSixteen___southFour" depart="215" />    <trip id="southFour___southThree_216" type="car" from="southFour___intersectionSixteen" to="intersectionFifthteen___southThree" depart="216" />    <trip id="northThree___eastOne_217" type="car" from="northThree___intersectionThree" to="intersectionFour___eastOne" depart="217" />    <trip id="westFour___southTwo_217" type="car" from="westFour___intersectionThirteen" to="intersectionFourteen___southTwo" depart="217" />    <trip id="southTwo___southThree_218" type="car" from="southTwo___intersectionFourteen" to="intersectionFifthteen___southThree" depart="218" />    <trip id="eastOne___eastThree_219" type="car" from="eastOne___intersectionFour" to="intersectionTwelve___eastThree" depart="219" />    <trip id="westFour___eastFour_219" type="car" from="westFour___intersectionThirteen" to="intersectionSixteen___eastFour" depart="219" />    <trip id="northTwo___northOne_222" type="car" from="northTwo___intersectionTwo" to="intersectionOne___northOne" depart="222" />    <trip id="southFour___southOne_222" type="car" from="southFour___intersectionSixteen" to="intersectionThirteen___southOne" depart="222" />    <trip id="southThree___southFour_223" type="car" from="southThree___intersectionFifthteen" to="intersectionSixteen___southFour" depart="223" />    <trip id="westThree___eastTwo_224" type="car" from="westThree___intersectionNine" to="intersectionEight___eastTwo" depart="224" />    <trip id="westTwo___northThree_224" type="car" from="westTwo___intersectionFive" to="intersectionThree___northThree" depart="224" />    <trip id="northTwo___westTwo_225" type="car" from="northTwo___intersectionTwo" to="intersectionFive___westTwo" depart="225" />    <trip id="eastFour___southThree_228" type="car" from="eastFour___intersectionSixteen" to="intersectionFifthteen___southThree" depart="228" />    <trip id="eastOne___northFour_228" type="car" from="eastOne___intersectionFour" to="intersectionFour___northFour" depart="228" />    <trip id="westOne___northFour_229" type="car" from="westOne___intersectionOne" to="intersectionFour___northFour" depart="229" />    <trip id="southThree___northFour_232" type="car" from="southThree___intersectionFifthteen" to="intersectionFour___northFour" depart="232" />    <trip id="westThree___southThree_233" type="car" from="westThree___intersectionNine" to="intersectionFifthteen___southThree" depart="233" />    <trip id="northThree___westTwo_234" type="car" from="northThree___intersectionThree" to="intersectionFive___westTwo" depart="234" />    <trip id="southOne___southTwo_234" type="car" from="southOne___intersectionThirteen" to="intersectionFourteen___southTwo" depart="234" />    <trip id="westTwo___eastTwo_236" type="car" from="westTwo___intersectionFive" to="intersectionEight___eastTwo" depart="236" />    <trip id="northTwo___northOne_237" type="car" from="northTwo___intersectionTwo" to="intersectionOne___northOne" depart="237" />    <trip id="eastTwo___eastThree_238" type="car" from="eastTwo___intersectionEight" to="intersectionTwelve___eastThree" depart="238" />    <trip id="northTwo___northFour_238" type="car" from="northTwo___intersectionTwo" to="intersectionFour___northFour" depart="238" />    <trip id="northOne___northTwo_240" type="car" from="northOne___intersectionOne" to="intersectionTwo___northTwo" depart="240" />    <trip id="southThree___northOne_240" type="car" from="southThree___intersectionFifthteen" to="intersectionOne___northOne" depart="240" />    <trip id="eastThree___southFour_241" type="car" from="eastThree___intersectionTwelve" to="intersectionSixteen___southFour" depart="241" />    <trip id="northTwo___southThree_241" type="car" from="northTwo___intersectionTwo" to="intersectionFifthteen___southThree" depart="241" />    <trip id="westFour___westTwo_241" type="car" from="westFour___intersectionThirteen" to="intersectionFive___westTwo" depart="241" />    <trip id="westTwo___southThree_242" type="car" from="westTwo___intersectionFive" to="intersectionFifthteen___southThree" depart="242" />    <trip id="southFour___eastThree_243" type="car" from="southFour___intersectionSixteen" to="intersectionTwelve___eastThree" depart="243" />    <trip id="southOne___westFour_244" type="car" from="southOne___intersectionThirteen" to="intersectionThirteen___westFour" depart="244" />    <trip id="northFour___southOne_245" type="car" from="northFour___intersectionFour" to="intersectionThirteen___southOne" depart="245" />    <trip id="northTwo___southOne_245" type="car" from="northTwo___intersectionTwo" to="intersectionThirteen___southOne" depart="245" />    <trip id="westTwo___westFour_245" type="car" from="westTwo___intersectionFive" to="intersectionThirteen___westFour" depart="245" />    <trip id="eastTwo___southThree_246" type="car" from="eastTwo___intersectionEight" to="intersectionFifthteen___southThree" depart="246" />    <trip id="northThree___eastThree_246" type="car" from="northThree___intersectionThree" to="intersectionTwelve___eastThree" depart="246" />    <trip id="northThree___northOne_247" type="car" from="northThree___intersectionThree" to="intersectionOne___northOne" depart="247" />    <trip id="eastThree___eastFour_250" type="car" from="eastThree___