
        <routes>
            <vType id="car" accel="0.8" decel="4.5" sigma="0.5" length="5" minGap="2.5" maxSpeed="15" guiShape="passenger"/>
            <trip id="northFour___westThree_0" type="car" from="northFour___intersectionFour" to="intersectionNine___westThree" depart="0" />    <trip id="westTwo___eastThree_1" type="car" from="westTwo___intersectionFive" to="intersectionTwelve___eastThree" depart="1" />    <trip id="eastTwo___westFour_2" type="car" from="eastTwo___intersectionEight" to="intersectionThirteen___westFour" depart="2" />    <trip id="northFour___eastTwo_2" type="car" from="northFour___intersectionFour" to="intersectionEight___eastTwo" depart="2" />    <trip id="eastThree___southTwo_6" type="car" from="eastThree___intersectionTwelve" to="intersectionFourteen___southTwo" depart="6" />    <trip id="eastTwo___eastThree_6" type="car" from="eastTwo___intersectionEight" to="intersectionTwelve___eastThree" depart="6" />    <trip id="southThree___northThree_6" type="car" from="southThree___intersectionFifthteen" to="intersectionThree___northThree" depart="6" />    <trip id="eastThree___northTwo_8" type="car" from="eastThree___intersectionTwelve" to="intersectionTwo___northTwo" depart="8" />    <trip id="westOne___northOne_9" type="car" from="westOne___intersectionOne" to="intersectionOne___northOne" depart="9" />    <trip id="westThree___northTwo_9" type="car" from="westThree___intersectionNine" to="intersectionTwo___northTwo" depart="9" />    <trip id="eastOne___northOne_10" type="car" from="eastOne___intersectionFour" to="intersectionOne___northOne" depart="10" />    <trip id="eastThree___southTwo_10" type="car" from="eastThree___intersectionTwelve" to="intersectionFourteen___southTwo" depart="10" />    <trip id="southThree___northOne_13" type="car" from="southThree___intersectionFifthteen" to="intersectionOne___northOne" depart="13" />    <trip id="westFour___northFour_13" type="car" from="westFour___intersectionThirteen" to="intersectionFour___northFour" depart="13" />    <trip id="northThree___southTwo_16" type="car" from="northThree___intersectionThree" to="intersectionFourteen___southTwo" depart="16" />    <trip id="southOne___eastFour_17" type="car" from="southOne___intersectionThirteen" to="intersectionSixteen___eastFour" depart="17" />    <trip id="southThree___eastTwo_19" type="car" from="southThree___intersectionFifthteen" to="intersectionEight___eastTwo" depart="19" />    <trip id="northFour___westOne_20" type="car" from="northFour___intersectionFour" to="intersectionOne___westOne" depart="20" />    <trip id="northTwo___eastFour_20" type="car" from="northTwo___intersectionTwo" to="intersectionSixteen___eastFour" depart="20" />    <trip id="westTwo___eastThree_20" type="car" from="westTwo___intersectionFive" to="intersectionTwelve___eastThree" depart="20" />    <trip id="northTwo___eastTwo_21" type="car" from="northTwo___intersectionTwo" to="intersectionEight___eastTwo" depart="21" />    <trip id="southThree___northThree_21" type="car" from="southThree___intersectionFifthteen" to="intersectionThree___northThree" depart="21" />    <trip id="westTwo___eastTwo_21" type="car" from="westTwo___intersectionFive" to="intersectionEight___eastTwo" depart="21" />    <trip id="northFour___northOne_22" type="car" from="northFour___intersectionFour" to="intersectionOne___northOne" depart="22" />    <trip id="westTwo___eastThree_22" type="car" from="westTwo___intersectionFive" to="intersectionTwelve___eastThree" depart="22" />    <trip id="eastTwo___westThree_24" type="car" from="eastTwo___intersectionEight" to="intersectionNine___westThree" depart="24" />    <trip id="southOne___westOne_24" type="car" from="southOne___intersectionThirteen" to="intersectionOne___westOne" depart="24" />    <trip id="westFour___eastTwo_24" type="car" from="westFour___intersectionThirteen" to="intersectionEight___eastTwo" depart="24" />    <trip id="northTwo___northFour_25" type="car" from="northTwo___intersectionTwo" to="intersectionFour___northFour" depart="25" />    <trip id="southFour___eastThree_25" type="car" from="southFour___intersectionSixteen" to="intersectionTwelve___eastThree" depart="25" />    <trip id="westOne___northTwo_25" type="car" from="westOne___intersectionOne" to="intersectionTwo___northTwo" depart="25" />    <trip id="eastThree___eastFour_27" type="car" from="eastThree___intersectionTwelve" to="intersectionSixteen___eastFour" depart="27" />    <trip id="eastFour___northTwo_28" type="car" from="eastFour___intersectionSixteen" to="intersectionTwo___northTwo" depart="28" />    <trip id="westFour___northTwo_29" type="car" from="westFour___intersectionThirteen" to="intersectionTwo___northTwo" depart="29" />    <trip id="northFour___northThree_30" type="car" from="northFour___intersectionFour" to="intersectionThree___northThree" depart="30" />    <trip id="southTwo___eastThree_31" type="car" from="southTwo___intersectionFourteen" to="intersectionTwelve___eastThree" depart="31" />    <trip id="northFour___westFour_32" type="car" from="northFour___intersectionFour" to="intersectionThirteen___westFour" depart="32" />    <trip id="eastFour___southThree_33" type="car" from="eastFour___intersectionSixteen" to="intersectionFifthteen___southThree" depart="33" />    <trip id="northThree___eastThree_33" type="car" from="northThree___intersectionThree" to="intersectionTwelve___eastThree" depart="33" />    <trip id="eastTwo___southOne_34" type="car" from="eastTwo___intersectionEight" to="intersectionThirteen___southOne" depart="34" />    <trip id="northOne___eastOne_34" type="car" from="northOne___intersectionOne" to="intersectionFour___eastOne" depart="34" />    <trip id="southOne___northTwo_34" type="car" from="southOne___intersectionThirteen" to="intersectionTwo___northTwo" depart="34" />    <trip id="eastTwo___southThree_35" type="car" from="eastTwo___intersectionEight" to="intersectionFifthteen___southThree" depart="35" />    <trip id="westOne___westThree_35" type="car" from="westOne___intersectionOne" to="intersectionNine___westThree" depart="35" />    <trip id="southFour___eastTwo_36" type="car" from="southFour___intersectionSixteen" to="intersectionEight___eastTwo" depart="36" />    <trip id="eastThree___eastFour_37" type="car" from="eastThree___intersectionTwelve" to="intersectionSixteen___eastFour" depart="37" />    <trip id="northThree___northFour_37" type="car" from="northThree___intersectionThree" to="intersectionFour___northFour" depart="37" />    <trip id="westOne___southFour_38" type="car" from="westOne___intersectionOne" to="intersectionSixteen___southFour" depart="38" />    <trip id="southTwo___eastThree_40" type="car" from="southTwo___intersectionFourteen" to="intersectionTwelve___eastThree" depart="40" />    <trip id="eastTwo___northOne_43" type="car" from="eastTwo___intersectionEight" to="intersectionOne___northOne" depart="43" />    <trip id="northTwo___westThree_43" type="car" from="northTwo___intersectionTwo" to="intersectionNine___westThree" depart="43" />    <trip id="southOne___southThree_43" type="car" from="southOne___intersectionThirteen" to="intersectionFifthteen___southThree" depart="43" />    <trip id="eastThree___southFour_44" type="car" from="eastThree___intersectionTwelve" to="intersectionSixteen___southFour" depart="44" />    <trip id="southTwo___southFour_44" type="car" from="southTwo___intersectionFourteen" to="intersectionSixteen___southFour" depart="44" />    <trip id="southFour___southThree_45" type="car" from="southFour___intersectionSixteen" to="intersectionFifthteen___southThree" depart="45" />    <trip id="northThree___eastThree_47" type="car" from="northThree___intersectionThree" to="intersectionTwelve___eastThree" depart="47" />    <trip id="northFour___eastTwo_49" type="car" from="northFour___intersectionFour" to="intersectionEight___eastTwo" depart="49" />    <trip id="eastFour___southFour_50" type="car" from="eastFour___intersectionSixteen" to="intersectionSixteen___southFour" depart="50" />    <trip id="southOne___northFour_50" type="car" from="southOne___intersectionThirteen" to="intersectionFour___northFour" depart="50" />    <trip id="southFour___eastOne_51" type="car" from="southFour___intersectionSixteen" to="intersectionFour___eastOne" depart="51" />    <trip id="southOne___southFour_51" type="car" from="southOne___intersectionThirteen" to="intersectionSixteen___southFour" depart="51" />    <trip id="westOne___southTwo_51" type="car" from="westOne___intersectionOne" to="intersectionFourteen___southTwo" depart="51" />    <trip id="southThree___westTwo_52" type="car" from="southThree___intersectionFifthteen" to="intersectionFive___westTwo" depart="52" />    <trip id="southTwo___northTwo_52" type="car" from="southTwo___intersectionFourteen" to="intersectionTwo___northTwo" depart="52" />    <trip id="southFour___westFour_53" type="car" from="southFour___intersectionSixteen" to="intersectionThirteen___westFour" depart="53" />    <trip id="westThree___northTwo_54" type="car" from="westThree___intersectionNine" to="intersectionTwo___northTwo" depart="54" />    <trip id="westTwo___southOne_54" type="car" from="westTwo___intersectionFive" to="intersectionThirteen___southOne" depart="54" />    <trip id="eastFour___eastThree_55" type="car" from="eastFour___intersectionSixteen" to="intersectionTwelve___eastThree" depart="55" />    <trip id="southFour___westFour_55" type="car" from="southFour___intersectionSixteen" to="intersectionThirteen___westFour" depart="55" />    <trip id="eastThree___westTwo_57" type="car" from="eastThree___intersectionTwelve" to="intersectionFive___westTwo" depart="57" />    <trip id="northFour___northTwo_63" type="car" from="northFour___intersectionFour" to="intersectionTwo___northTwo" depart="63" />    <trip id="westThree___southOne_63" type="car" from="westThree___intersectionNine" to="intersectionThirteen___southOne" depart="63" />    <trip id="northFour___eastFour_64" type="car" from="northFour___intersectionFour" to="intersectionSixteen___eastFour" depart="64" />    <trip id="eastTwo___southTwo_66" type="car" from="eastTwo___intersectionEight" to="intersectionFourteen___southTwo" depart="66" />    <trip id="eastFour___northThree_67" type="car" from="eastFour___intersectionSixteen" to="intersectionThree___northThree" depart="67" />    <trip id="northFour___eastTwo_67" type="car" from="northFour___intersectionFour" to="intersectionEight___eastTwo" depart="67" />    <trip id="northOne___eastFour_67" type="car" from="northOne___intersectionOne" to="intersectionSixteen___eastFour" depart="67" />    <trip id="northTwo___southOne_67" type="car" from="northTwo___intersectionTwo" to="intersectionThirteen___southOne" depart="67" />    <trip id="southFour___eastOne_67" type="car" from="southFour___intersectionSixteen" to="intersectionFour___eastOne" depart="67" />    <trip id="westFour___southFour_68" type="car" from="westFour___intersectionThirteen" to="intersectionSixteen___southFour" depart="68" />    <trip id="westTwo___eastTwo_68" type="car" from="westTwo___intersectionFive" to="intersectionEight___eastTwo" depart="68" />    <trip id="eastOne___eastTwo_69" type="car" from="eastOne___intersectionFour" to="intersectionEight___eastTwo" depart="69" />    <trip id="northFour___southThree_69" type="car" from="northFour___intersectionFour" to="intersectionFifthteen___southThree" depart="69" />    <trip id="southThree___westThree_69" type="car" from="southThree___intersectionFifthteen" to="intersectionNine___westThree" depart="69" />    <trip id="eastFour___northTwo_72" type="car" from="eastFour___intersectionSixteen" to="intersectionTwo___northTwo" depart="72" />    <trip id="northFour___westThree_72" type="car" from="northFour___intersectionFour" to="intersectionNine___westThree" depart="72" />    <trip id="southOne___southFour_72" type="car" from="southOne___intersectionThirteen" to="intersectionSixteen___southFour" depart="72" />    <trip id="eastFour___southFour_73" type="car" from="eastFour___intersectionSixteen" to="intersectionSixteen___southFour" depart="73" />    <trip id="northOne___eastTwo_73" type="car" from="northOne___intersectionOne" to="intersectionEight___eastTwo" depart="73" />    <trip id="eastFour___northFour_74" type="car" from="eastFour___intersectionSixteen" to="intersectionFour___northFour" depart="74" />    <trip id="southFour___northOne_75" type="car" from="southFour___intersectionSixteen" to="intersectionOne___northOne" depart="75" />    <trip id="northTwo___westFour_76" type="car" from="northTwo___intersectionTwo" to="intersectionThirteen___westFour" depart="76" />    <trip id="southThree___westTwo_78" type="car" from="southThree___intersectionFifthteen" to="intersectionFive___westTwo" depart="78" />    <trip id="westFour___northOne_78" type="car" from="westFour___intersectionThirteen" to="intersectionOne___northOne" depart="78" />    <trip id="westThree___westTwo_81" type="car" from="westThree___intersectionNine" to="intersectionFive___westTwo" depart="81" />    <trip id="eastThree___southOne_82" type="car" from="eastThree___intersectionTwelve" to="intersectionThirteen___southOne" depart="82" />    <trip id="eastTwo___eastOne_82" type="car" from="eastTwo___intersectionEight" to="intersectionFour___eastOne" depart="82" />    <trip id="eastTwo___eastOne_83" type="car" from="eastTwo___intersectionEight" to="intersectionFour___eastOne" depart="83" />    <trip id="southTwo___westThree_84" type="car" from="southTwo___intersectionFourteen" to="intersectionNine___westThree" depart="84" />    <trip id="westTwo___northTwo_87" type="car" from="westTwo___intersectionFive" to="intersectionTwo___northTwo" depart="87" />    <trip id="northThree___eastOne_89" type="car" from="northThree___intersectionThree" to="intersectionFour___eastOne" depart="89" />    <trip id="westOne___northThree_89" type="car" from="westOne___intersectionOne" to="intersectionThree___northThree" depart="89" />    <trip id="westOne___southThree_92" type="car" from="westOne___intersectionOne" to="intersectionFifthteen___southThree" depart="92" />    <trip id="southOne___westOne_93" type="car" from="southOne___intersectionThirteen" to="intersectionOne___westOne" depart="93" />    <trip id="eastOne___eastThree_94" type="car" from="eastOne___intersectionFour" to="intersectionTwelve___eastThree" depart="94" />    <trip id="southFour___northTwo_94" type="car" from="southFour___intersectionSixteen" to="intersectionTwo___northTwo" depart="94" />    <trip id="eastTwo___northThree_95" type="car" from="eastTwo___intersectionEight" to="intersectionThree___northThree" depart="95" />    <trip id="northThree___southFour_95" type="car" from="northThree___intersectionThree" to="intersectionSixteen___southFour" depart="95" />    <trip id="southTwo___southFour_95" type="car" from="southTwo___intersectionFourteen" to="intersectionSixteen___southFour" depart="95" />    <trip id="eastThree___northOne_99" type="car" from="eastThree___intersectionTwelve" to="intersectionOne___northOne" depart="99" />    <trip id="eastTwo___southFour_100" type="car" from="eastTwo___intersectionEight" to="intersectionSixteen___southFour" depart="100" />    <trip id="northTwo___northFour_102" type="car" from="northTwo___intersectionTwo" to="intersectionFour___northFour" depart="102" />    <trip id="northTwo___westThree_103" type="car" from="northTwo___intersectionTwo" to="intersectionNine___westThree" depart="103" />    <trip id="eastOne___westFour_104" type="car" from="eastOne___intersectionFour" to="intersectionThirteen___westFour" depart="104" />    <trip id="eastOne___southTwo_106" type="car" from="eastOne___intersectionFour" to="intersectionFourteen___southTwo" depart="106" />    <trip id="northThree___southOne_107" type="car" from="northThree___intersectionThree" to="intersectionThirteen___southOne" depart="107" />    <trip id="eastTwo___westThree_109" type="car" from="eastTwo___intersectionEight" to="intersectionNine___westThree" depart="109" />    <trip id="westThree___northOne_109" type="car" from="westThree___intersectionNine" to="intersectionOne___northOne" depart="109" />    <trip id="eastThree___eastTwo_110" type="car" from="eastThree___intersectionTwelve" to="intersectionEight___eastTwo" depart="110" />    <trip id="eastTwo___eastFour_110" type="car" from="eastTwo___intersectionEight" to="intersectionSixteen___eastFour" depart="110" />    <trip id="southThree___southTwo_111" type="car" from="southThree___intersectionFifthteen" to="intersectionFourteen___southTwo" depart="111" />    <trip id="southOne___northOne_114" type="car" from="southOne___intersectionThirteen" to="intersectionOne___northOne" depart="114" />    <trip id="eastTwo___eastOne_115" type="car" from="eastTwo___intersectionEight" to="intersectionFour___eastOne" depart="115" />    <trip id="westFour___southTwo_116" type="car" from="westFour___intersectionThirteen" to="intersectionFourteen___southTwo" depart="116" />    <trip id="southThree___southTwo_119" type="car" from="southThree___intersectionFifthteen" to="intersectionFourteen___southTwo" depart="119" />    <trip id="northTwo___eastThree_122" type="car" from="northTwo___intersectionTwo" to="intersectionTwelve___eastThree" depart="122" />    <trip id="southOne___northOne_122" type="car" from="southOne___intersectionThirteen" to="intersectionOne___northOne" depart="122" />    <trip id="northOne___southThree_123" type="car" from="northOne___intersectionOne" to="intersectionFifthteen___southThree" depart="123" />    <trip id="northOne___westTwo_125" type="car" from="northOne___intersectionOne" to="intersectionFive___westTwo" depart="125" />    <trip id="northThree___eastTwo_125" type="car" from="northThree___intersectionThree" to="intersectionEight___eastTwo" depart="125" />    <trip id="southTwo___eastTwo_126" type="car" from="southTwo___intersectionFourteen" to="intersectionEight___eastTwo" depart="126" />    <trip id="northTwo___southFour_127" type="car" from="northTwo___intersectionTwo" to="intersectionSixteen___southFour" depart="127" />    <trip id="southTwo___southFour_130" type="car" from="southTwo___intersectionFourteen" to="intersectionSixteen___southFour" depart="130" />    <trip id="westFour___northThree_131" type="car" from="westFour___intersectionThirteen" to="intersectionThree___northThree" depart="131" />    <trip id="southThree___westOne_132" type="car" from="southThree___intersectionFifthteen" to="intersectionOne___westOne" depart="132" />    <trip id="westFour___westOne_132" type="car" from="westFour___intersectionThirteen" to="intersectionOne___westOne" depart="132" />    <trip id="eastTwo___southFour_133" type="car" from="eastTwo___intersectionEight" to="intersectionSixteen___southFour" depart="133" />    <trip id="northFour___westThree_134" type="car" from="northFour___intersectionFour" to="intersectionNine___westThree" depart="134" />    <trip id="northTwo___northThree_136" type="car" from="northTwo___intersectionTwo" to="intersectionThree___northThree" depart="136" />    <trip id="southTwo___northTwo_137" type="car" from="southTwo___intersectionFourteen" to="intersectionTwo___northTwo" depart="137" />    <trip id="northOne___westThree_138" type="car" from="northOne___intersectionOne" to="intersectionNine___westThree" depart="138" />    <trip id="southTwo___southThree_138" type="car" from="southTwo___intersectionFourteen" to="intersectionFifthteen___southThree" depart="138" />    <trip id="northFour___eastOne_139" type="car" from="northFour___intersectionFour" to="intersectionFour___eastOne" depart="139" />    <trip id="westTwo___southTwo_139" type="car" from="westTwo___intersectionFive" to="intersectionFourteen___southTwo" depart="139" />    <trip id="northOne___southOne_140" type="car" from="northOne___intersectionOne" to="intersectionThirteen___southOne" depart="140" />    <trip id="southThree___southOne_144" type="car" from="southThree___intersectionFifthteen" to="intersectionThirteen___southOne" depart="144" />    <trip id="westTwo___northThree_144" type="car" from="westTwo___intersectionFive" to="intersectionThree___northThree" depart="144" />    <trip id="northOne___eastOne_147" type="car" from="northOne___intersectionOne" to="intersectionFour___eastOne" depart="147" />    <trip id="southThree___westTwo_148" type="car" from="southThree___intersectionFifthteen" to="intersectionFive___westTwo" depart="148" />    <trip id="westFour___northOne_153" type="car" from="westFour___intersectionThirteen" to="intersectionOne___northOne" depart="153" />    <trip id="eastTwo___westOne_154" type="car" from="eastTwo___intersectionEight" to="intersectionOne___westOne" depart="154" />    <trip id="southOne___southThree_154" type="car" from="southOne___intersectionThirteen" to="intersectionFifthteen___southThree" depart="154" />    <trip id="northThree___northOne_155" type="car" from="northThree___intersectionThree" to="intersectionOne___northOne" depart="155" />    <trip id="northOne___westTwo_157" type="car" from="northOne___intersectionOne" to="intersectionFive___westTwo" depart="157" />    <trip id="northThree___northFour_161" type="car" from="northThree___intersectionThree" to="intersectionFour___northFour" depart="161" />    <trip id="southTwo___eastOne_162" type="car" from="southTwo___intersectionFourteen" to="intersectionFour___eastOne" depart="162" />    <trip id="eastFour___eastThree_163" type="car" from="eastFour___intersectionSixteen" to="intersectionTwelve___eastThree" depart="163" />    <trip id="eastOne___westTwo_163" type="car" from="eastOne___intersectionFour" to="intersectionFive___westTwo" depart="163" />    <trip id="eastTwo___southFour_164" type="car" from="eastTwo___intersectionEight" to="intersectionSixteen___southFour" depart="164" />    <trip id="southTwo___westTwo_164" type="car" from="southTwo___intersectionFourteen" to="intersectionFive___westTwo" depart="164" />    <trip id="westThree___eastTwo_164" type="car" from="westThree___intersectionNine" to="intersectionEight___eastTwo" depart="164" />    <trip id="westTwo___eastFour_164" type="car" from="westTwo___intersectionFive" to="intersectionSixteen___eastFour" depart="164" />    <trip id="westFour___southTwo_165" type="car" from="westFour___intersectionThirteen" to="intersectionFourteen___southTwo" depart="165" />    <trip id="eastThree___eastFour_168" type="car" from="eastThree___intersectionTwelve" to="intersectionSixteen___eastFour" depart="168" />    <trip id="southFour___westOne_168" type="car" from="southFour___intersectionSixteen" to="intersectionOne___westOne" depart="168" />    <trip id="westTwo___southTwo_169" type="car" from="westTwo___intersectionFive" to="intersectionFourteen___southTwo" depart="169" />    <trip id="northTwo___westTwo_170" type="car" from="northTwo___intersectionTwo" to="intersectionFive___westTwo" depart="170" />    <trip id="northThree___southOne_171" type="car" from="northThree___intersectionThree" to="intersectionThirteen___southOne" depart="171" />    <trip id="southOne___westTwo_171" type="car" from="southOne___intersectionThirteen" to="intersectionFive___westTwo" depart="171" />    <trip id="northThree___eastOne_172" type="car" from="northThree___intersectionThree" to="intersectionFour___eastOne" depart="172" />    <trip id="southThree___westFour_174" type="car" from="southThree___intersectionFifthteen" to="intersectionThirteen___westFour" depart="174" />    <trip id="northThree___westFour_175" type="car" from="northThree___intersectionThree" to="intersectionThirteen___westFour" depart="175" />    <trip id="southOne___northOne_177" type="car" from="southOne___intersectionThirteen" to="intersectionOne___northOne" depart="177" />    <trip id="northThree___southThree_178" type="car" from="northThree___intersectionThree" to="intersectionFifthteen___southThree" depart="178" />    <trip id="eastThree___southThree_179" type="car" from="eastThree___intersectionTwelve" to="intersectionFifthteen___southThree" depart="179" />    <trip id="northThree___westThree_180" type="car" from="northThree___intersectionThree" to="intersectionNine___westThree" depart="180" />    <trip id="westOne___southThree_183" type="car" from="westOne___intersectionOne" to="intersectionFifthteen___southThree" depart="183" />    <trip id="southOne___eastOne_184" type="car" from="southOne___intersectionThirteen" to="intersectionFour___eastOne" depart="184" />    <trip id="northThree___westTwo_185" type="car" from="northThree___intersectionThree" to="intersectionFive___westTwo" depart="185" />    <trip id="northOne___northFour_186" type="car" from="northOne___intersectionOne" to="intersectionFour___northFour" depart="186" />    <trip id="northTwo___southOne_187" type="car" from="northTwo___intersectionTwo" to="intersectionThirteen___southOne" depart="187" />    <trip id="westOne___southOne_187" type="car" from="westOne___intersectionOne" to="intersectionThirteen___southOne" depart="187" />    <trip id="westOne___southTwo_189" type="car" from="westOne___intersectionOne" to="intersectionFourteen___southTwo" depart="189" />    <trip id="eastFour___northTwo_190" type="car" from="eastFour___intersectionSixteen" to="intersectionTwo___northTwo" depart="190" />    <trip id="southOne___southTwo_190" type="car" from="southOne___intersectionThirteen" to="intersectionFourteen___southTwo" depart="190" />    <trip id="eastFour___southOne_192" type="car" from="eastFour___intersectionSixteen" to="intersectionThirteen___southOne" depart="192" />    <trip id="southThree___northFour_192" type="car" from="southThree___intersectionFifthteen" to="intersectionFour___northFour" depart="192" />    <trip id="northThree___eastOne_193" type="car" from="northThree___intersectionThree" to="intersectionFour___eastOne" depart="193" />    <trip id="northOne___westThree_194" type="car" from="northOne___intersectionOne" to="intersectionNine___westThree" depart="194" />    <trip id="southThree___southFour_194" type="car" from="southThree___intersectionFifthteen" to="intersectionSixteen___southFour" depart="194" />    <trip id="westThree___northTwo_194" type="car" from="westThree___intersectionNine" to="intersectionTwo___northTwo" depart="194" />    <trip id="southFour___northThree_196" type="car" from="southFour___intersectionSixteen" to="intersectionThree___northThree" depart="196" />    <trip id="eastOne___northFour_197" type="car" from="eastOne___intersectionFour" to="intersectionFour___northFour" depart="197" />    <trip id="southThree___eastOne_197" type="car" from="southThree___intersectionFifthteen" to="intersectionFour___eastOne" depart="197" />    <trip id="westThree___southOne_198" type="car" from="westThree___intersectionNine" to="intersectionThirteen___southOne" depart="198" />    <trip id="eastOne___southOne_202" type="car" from="eastOne___intersectionFour" to="intersectionThirteen___southOne" depart="202" />    <trip id="eastOne___southOne_203" type="car" from="eastOne___intersectionFour" to="intersectionThirteen___southOne" depart="203" />    <trip id="eastThree___westOne_204" type="car" from="eastThree___intersectionTwelve" to="intersectionOne___westOne" depart="204" />    <trip id="westTwo___southThree_205" type="car" from="westTwo___intersectionFive" to="intersectionFifthteen___southThree" depart="205" />    <trip id="southThree___southOne_207" type="car" from="southThree___intersectionFifthteen" to="intersectionThirteen___southOne" depart="207" />    <trip id="eastThree___northThree_209" type="car" from="eastThree___intersectionTwelve" to="intersectionThree___northThree" depart="209" />    <trip id="eastTwo___southOne_210" type="car" from="eastTwo___intersectionEight" to="intersectionThirteen___southOne" depart="210" />    <trip id="northFour___southThree_211" type="car" from="northFour___intersectionFour" to="intersectionFifthteen___southThree" depart="211" />    <trip id="northOne___eastFour_211" type="car" from="northOne___intersectionOne" to="intersectionSixteen___eastFour" depart="211" />    <trip id="southTwo___eastOne_212" type="car" from="southTwo___intersectionFourteen" to="intersectionFour___eastOne" depart="212" />    <trip id="northOne___northTwo_214" type="car" from="northOne___intersectionOne" to="intersectionTwo___northTwo" depart="214" />    <trip id="eastFour___eastThree_215" type="car" from="eastFour___intersectionSixteen" to="intersectionTwelve___eastThree" depart="215" />    <trip id="westOne___eastOne_215" type="car" from="westOne___intersectionOne" to="intersectionFour___eastOne" depart="215" />    <trip id="southFour___eastFour_216" type="car" from="southFour___intersectionSixteen" to="intersectionSixteen___eastFour" depart="216" />    <trip id="northFour___westOne_217" type="car" from="northFour___intersectionFour" to="intersectionOne___westOne" depart="217" />    <trip id="northOne___westTwo_218" type="car" from="northOne___intersectionOne" to="intersectionFive___westTwo" depart="218" />    <trip id="eastTwo___westOne_219" type="car" from="eastTwo___intersectionEight" to="intersectionOne___westOne" depart="219" />    <trip id="northTwo___southThree_220" type="car" from="northTwo___intersectionTwo" to="intersectionFifthteen___southThree" depart="220" />    <trip id="eastTwo___westFour_221" type="car" from="eastTwo___intersectionEight" to="intersectionThirteen___westFour" depart="221" />    <trip id="southTwo___southOne_221" type="car" from="southTwo___intersectionFourteen" to="intersectionThirteen___southOne" depart="221" />    <trip id="eastFour___westFour_223" type="car" from="eastFour___intersectionSixteen" to="intersectionThirteen___westFour" depart="223" />    <trip id="westOne___southTwo_224" type="car" from="westOne___intersectionOne" to="intersectionFourteen___southTwo" depart="224" />    <trip id="westTwo___southThree_224" type="car" from="westTwo___intersectionFive" to="intersectionFifthteen___southThree" depart="224" />    <trip id="northTwo___northFour_225" type="car" from="northTwo___intersectionTwo" to="intersectionFour___northFour" depart="225" />    <trip id="eastThree___southOne_226"