
        <routes>
            <vType id="car" accel="0.8" decel="4.5" sigma="0.5" length="5" minGap="2.5" maxSpeed="15" guiShape="passenger"/>
            <trip id="southFour___northFour_0" type="car" from="southFour___intersectionSixteen" to="intersectionFour___northFour" depart="0" />    <trip id="southOne___westThree_4" type="car" from="southOne___intersectionThirteen" to="intersectionNine___westThree" depart="4" />    <trip id="westThree___northOne_4" type="car" from="westThree___intersectionNine" to="intersectionOne___northOne" depart="4" />    <trip id="northThree___eastFour_5" type="car" from="northThree___intersectionThree" to="intersectionSixteen___eastFour" depart="5" />    <trip id="southThree___westFour_5" type="car" from="southThree___intersectionFifthteen" to="intersectionThirteen___westFour" depart="5" />    <trip id="eastTwo___southFour_7" type="car" from="eastTwo___intersectionEight" to="intersectionSixteen___southFour" depart="7" />    <trip id="eastFour___eastTwo_8" type="car" from="eastFour___intersectionSixteen" to="intersectionEight___eastTwo" depart="8" />    <trip id="northTwo___northOne_8" type="car" from="northTwo___intersectionTwo" to="intersectionOne___northOne" depart="8" />    <trip id="eastFour___westFour_9" type="car" from="eastFour___intersectionSixteen" to="intersectionThirteen___westFour" depart="9" />    <trip id="eastOne___northTwo_9" type="car" from="eastOne___intersectionFour" to="intersectionTwo___northTwo" depart="9" />    <trip id="northFour___westFour_9" type="car" from="northFour___intersectionFour" to="intersectionThirteen___westFour" depart="9" />    <trip id="northThree___southOne_9" type="car" from="northThree___intersectionThree" to="intersectionThirteen___southOne" depart="9" />    <trip id="southTwo___northFour_9" type="car" from="southTwo___intersectionFourteen" to="intersectionFour___northFour" depart="9" />    <trip id="southThree___northOne_12" type="car" from="southThree___intersectionFifthteen" to="intersectionOne___northOne" depart="12" />    <trip id="westThree___southThree_12" type="car" from="westThree___intersectionNine" to="intersectionFifthteen___southThree" depart="12" />    <trip id="westOne___northOne_13" type="car" from="westOne___intersectionOne" to="intersectionOne___northOne" depart="13" />    <trip id="westTwo___northThree_13" type="car" from="westTwo___intersectionFive" to="intersectionThree___northThree" depart="13" />    <trip id="northOne___westThree_19" type="car" from="northOne___intersectionOne" to="intersectionNine___westThree" depart="19" />    <trip id="northThree___eastFour_19" type="car" from="northThree___intersectionThree" to="intersectionSixteen___eastFour" depart="19" />    <trip id="southTwo___westOne_19" type="car" from="southTwo___intersectionFourteen" to="intersectionOne___westOne" depart="19" />    <trip id="northFour___eastThree_20" type="car" from="northFour___intersectionFour" to="intersectionTwelve___eastThree" depart="20" />    <trip id="eastThree___westFour_21" type="car" from="eastThree___intersectionTwelve" to="intersectionThirteen___westFour" depart="21" />    <trip id="westFour___westThree_22" type="car" from="westFour___intersectionThirteen" to="intersectionNine___westThree" depart="22" />    <trip id="eastTwo___westThree_23" type="car" from="eastTwo___intersectionEight" to="intersectionNine___westThree" depart="23" />    <trip id="northOne___westTwo_23" type="car" from="northOne___intersectionOne" to="intersectionFive___westTwo" depart="23" />    <trip id="southTwo___northThree_23" type="car" from="southTwo___intersectionFourteen" to="intersectionThree___northThree" depart="23" />    <trip id="northFour___westFour_24" type="car" from="northFour___intersectionFour" to="intersectionThirteen___westFour" depart="24" />    <trip id="southThree___eastThree_24" type="car" from="southThree___intersectionFifthteen" to="intersectionTwelve___eastThree" depart="24" />    <trip id="westFour___southTwo_25" type="car" from="westFour___intersectionThirteen" to="intersectionFourteen___southTwo" depart="25" />    <trip id="westThree___northTwo_25" type="car" from="westThree___intersectionNine" to="intersectionTwo___northTwo" depart="25" />    <trip id="northOne___westTwo_26" type="car" from="northOne___intersectionOne" to="intersectionFive___westTwo" depart="26" />    <trip id="westFour___eastThree_27" type="car" from="westFour___intersectionThirteen" to="intersectionTwelve___eastThree" depart="27" />    <trip id="northFour___southTwo_29" type="car" from="northFour___intersectionFour" to="intersectionFourteen___southTwo" depart="29" />    <trip id="northThree___westTwo_36" type="car" from="northThree___intersectionThree" to="intersectionFive___westTwo" depart="36" />    <trip id="eastThree___northFour_38" type="car" from="eastThree___intersectionTwelve" to="intersectionFour___northFour" depart="38" />    <trip id="northTwo___eastFour_39" type="car" from="northTwo___intersectionTwo" to="intersectionSixteen___eastFour" depart="39" />    <trip id="eastOne___northThree_42" type="car" from="eastOne___intersectionFour" to="intersectionThree___northThree" depart="42" />    <trip id="westTwo___northThree_42" type="car" from="westTwo___intersectionFive" to="intersectionThree___northThree" depart="42" />    <trip id="southTwo___southFour_43" type="car" from="southTwo___intersectionFourteen" to="intersectionSixteen___southFour" depart="43" />    <trip id="westThree___westTwo_46" type="car" from="westThree___intersectionNine" to="intersectionFive___westTwo" depart="46" />    <trip id="northTwo___eastTwo_47" type="car" from="northTwo___intersectionTwo" to="intersectionEight___eastTwo" depart="47" />    <trip id="southOne___eastThree_47" type="car" from="southOne___intersectionThirteen" to="intersectionTwelve___eastThree" depart="47" />    <trip id="southThree___westTwo_47" type="car" from="southThree___intersectionFifthteen" to="intersectionFive___westTwo" depart="47" />    <trip id="eastTwo___northFour_50" type="car" from="eastTwo___intersectionEight" to="intersectionFour___northFour" depart="50" />    <trip id="southThree___eastOne_51" type="car" from="southThree___intersectionFifthteen" to="intersectionFour___eastOne" depart="51" />    <trip id="northFour___eastOne_52" type="car" from="northFour___intersectionFour" to="intersectionFour___eastOne" depart="52" />    <trip id="eastOne___northFour_53" type="car" from="eastOne___intersectionFour" to="intersectionFour___northFour" depart="53" />    <trip id="southThree___westOne_54" type="car" from="southThree___intersectionFifthteen" to="intersectionOne___westOne" depart="54" />    <trip id="southTwo___northThree_54" type="car" from="southTwo___intersectionFourteen" to="intersectionThree___northThree" depart="54" />    <trip id="northFour___southThree_55" type="car" from="northFour___intersectionFour" to="intersectionFifthteen___southThree" depart="55" />    <trip id="westOne___westTwo_55" type="car" from="westOne___intersectionOne" to="intersectionFive___westTwo" depart="55" />    <trip id="eastFour___northThree_58" type="car" from="eastFour___intersectionSixteen" to="intersectionThree___northThree" depart="58" />    <trip id="eastOne___westTwo_58" type="car" from="eastOne___intersectionFour" to="intersectionFive___westTwo" depart="58" />    <trip id="northOne___westTwo_58" type="car" from="northOne___intersectionOne" to="intersectionFive___westTwo" depart="58" />    <trip id="eastTwo___northOne_59" type="car" from="eastTwo___intersectionEight" to="intersectionOne___northOne" depart="59" />    <trip id="northTwo___westOne_61" type="car" from="northTwo___intersectionTwo" to="intersectionOne___westOne" depart="61" />    <trip id="eastTwo___northOne_62" type="car" from="eastTwo___intersectionEight" to="intersectionOne___northOne" depart="62" />    <trip id="westFour___northFour_62" type="car" from="westFour___intersectionThirteen" to="intersectionFour___northFour" depart="62" />    <trip id="eastThree___southTwo_69" type="car" from="eastThree___intersectionTwelve" to="intersectionFourteen___southTwo" depart="69" />    <trip id="southFour___westTwo_69" type="car" from="southFour___intersectionSixteen" to="intersectionFive___westTwo" depart="69" />    <trip id="westThree___westFour_73" type="car" from="westThree___intersectionNine" to="intersectionThirteen___westFour" depart="73" />    <trip id="northTwo___westFour_74" type="car" from="northTwo___intersectionTwo" to="intersectionThirteen___westFour" depart="74" />    <trip id="eastFour___westTwo_79" type="car" from="eastFour___intersectionSixteen" to="intersectionFive___westTwo" depart="79" />    <trip id="northTwo___eastTwo_79" type="car" from="northTwo___intersectionTwo" to="intersectionEight___eastTwo" depart="79" />    <trip id="eastOne___southTwo_80" type="car" from="eastOne___intersectionFour" to="intersectionFourteen___southTwo" depart="80" />    <trip id="eastTwo___southThree_80" type="car" from="eastTwo___intersectionEight" to="intersectionFifthteen___southThree" depart="80" />    <trip id="westTwo___northOne_83" type="car" from="westTwo___intersectionFive" to="intersectionOne___northOne" depart="83" />    <trip id="northFour___westOne_86" type="car" from="northFour___intersectionFour" to="intersectionOne___westOne" depart="86" />    <trip id="northThree___northTwo_87" type="car" from="northThree___intersectionThree" to="intersectionTwo___northTwo" depart="87" />    <trip id="northOne___northTwo_88" type="car" from="northOne___intersectionOne" to="intersectionTwo___northTwo" depart="88" />    <trip id="southOne___northOne_88" type="car" from="southOne___intersectionThirteen" to="intersectionOne___northOne" depart="88" />    <trip id="eastFour___southTwo_89" type="car" from="eastFour___intersectionSixteen" to="intersectionFourteen___southTwo" depart="89" />    <trip id="eastFour___northOne_90" type="car" from="eastFour___intersectionSixteen" to="intersectionOne___northOne" depart="90" />    <trip id="westTwo___southOne_90" type="car" from="westTwo___intersectionFive" to="intersectionThirteen___southOne" depart="90" />    <trip id="northFour___eastThree_92" type="car" from="northFour___intersectionFour" to="intersectionTwelve___eastThree" depart="92" />    <trip id="northOne___southOne_92" type="car" from="northOne___intersectionOne" to="intersectionThirteen___southOne" depart="92" />    <trip id="southFour___eastFour_93" type="car" from="southFour___intersectionSixteen" to="intersectionSixteen___eastFour" depart="93" />    <trip id="westThree___northTwo_93" type="car" from="westThree___intersectionNine" to="intersectionTwo___northTwo" depart="93" />    <trip id="northFour___northOne_94" type="car" from="northFour___intersectionFour" to="intersectionOne___northOne" depart="94" />    <trip id="southFour___southTwo_94" type="car" from="southFour___intersectionSixteen" to="intersectionFourteen___southTwo" depart="94" />    <trip id="southThree___northThree_94" type="car" from="southThree___intersectionFifthteen" to="intersectionThree___northThree" depart="94" />    <trip id="southThree___eastFour_97" type="car" from="southThree___intersectionFifthteen" to="intersectionSixteen___eastFour" depart="97" />    <trip id="westThree___southFour_97" type="car" from="westThree___intersectionNine" to="intersectionSixteen___southFour" depart="97" />    <trip id="eastTwo___eastFour_99" type="car" from="eastTwo___intersectionEight" to="intersectionSixteen___eastFour" depart="99" />    <trip id="northThree___eastThree_100" type="car" from="northThree___intersectionThree" to="intersectionTwelve___eastThree" depart="100" />    <trip id="southFour___eastFour_101" type="car" from="southFour___intersectionSixteen" to="intersectionSixteen___eastFour" depart="101" />    <trip id="westFour___southFour_101" type="car" from="westFour___intersectionThirteen" to="intersectionSixteen___southFour" depart="101" />    <trip id="westThree___southOne_102" type="car" from="westThree___intersectionNine" to="intersectionThirteen___southOne" depart="102" />    <trip id="northTwo___eastTwo_103" type="car" from="northTwo___intersectionTwo" to="intersectionEight___eastTwo" depart="103" />    <trip id="southFour___eastTwo_103" type="car" from="southFour___intersectionSixteen" to="intersectionEight___eastTwo" depart="103" />    <trip id="southOne___southTwo_104" type="car" from="southOne___intersectionThirteen" to="intersectionFourteen___southTwo" depart="104" />    <trip id="westTwo___southOne_104" type="car" from="westTwo___intersectionFive" to="intersectionThirteen___southOne" depart="104" />    <trip id="northOne___westTwo_105" type="car" from="northOne___intersectionOne" to="intersectionFive___westTwo" depart="105" />    <trip id="westThree___eastThree_105" type="car" from="westThree___intersectionNine" to="intersectionTwelve___eastThree" depart="105" />    <trip id="southThree___eastTwo_106" type="car" from="southThree___intersectionFifthteen" to="intersectionEight___eastTwo" depart="106" />    <trip id="eastTwo___northTwo_107" type="car" from="eastTwo___intersectionEight" to="intersectionTwo___northTwo" depart="107" />    <trip id="westThree___westTwo_107" type="car" from="westThree___intersectionNine" to="intersectionFive___westTwo" depart="107" />    <trip id="southFour___northThree_109" type="car" from="southFour___intersectionSixteen" to="intersectionThree___northThree" depart="109" />    <trip id="eastOne___westTwo_111" type="car" from="eastOne___intersectionFour" to="intersectionFive___westTwo" depart="111" />    <trip id="eastOne___westFour_112" type="car" from="eastOne___intersectionFour" to="intersectionThirteen___westFour" depart="112" />    <trip id="eastTwo___northOne_112" type="car" from="eastTwo___intersectionEight" to="intersectionOne___northOne" depart="112" />    <trip id="westTwo___westOne_112" type="car" from="westTwo___intersectionFive" to="intersectionOne___westOne" depart="112" />    <trip id="westThree___northTwo_114" type="car" from="westThree___intersectionNine" to="intersectionTwo___northTwo" depart="114" />    <trip id="southThree___westTwo_116" type="car" from="southThree___intersectionFifthteen" to="intersectionFive___westTwo" depart="116" />    <trip id="westTwo___eastTwo_117" type="car" from="westTwo___intersectionFive" to="intersectionEight___eastTwo" depart="117" />    <trip id="eastTwo___southThree_118" type="car" from="eastTwo___intersectionEight" to="intersectionFifthteen___southThree" depart="118" />    <trip id="eastTwo___southFour_120" type="car" from="eastTwo___intersectionEight" to="intersectionSixteen___southFour" depart="120" />    <trip id="northTwo___westOne_120" type="car" from="northTwo___intersectionTwo" to="intersectionOne___westOne" depart="120" />    <trip id="eastFour___eastThree_122" type="car" from="eastFour___intersectionSixteen" to="intersectionTwelve___eastThree" depart="122" />    <trip id="northThree___northTwo_125" type="car" from="northThree___intersectionThree" to="intersectionTwo___northTwo" depart="125" />    <trip id="southFour___southOne_128" type="car" from="southFour___intersectionSixteen" to="intersectionThirteen___southOne" depart="128" />    <trip id="westThree___eastThree_129" type="car" from="westThree___intersectionNine" to="intersectionTwelve___eastThree" depart="129" />    <trip id="northTwo___westOne_132" type="car" from="northTwo___intersectionTwo" to="intersectionOne___westOne" depart="132" />    <trip id="eastOne___westTwo_133" type="car" from="eastOne___intersectionFour" to="intersectionFive___westTwo" depart="133" />    <trip id="southTwo___northThree_135" type="car" from="southTwo___intersectionFourteen" to="intersectionThree___northThree" depart="135" />    <trip id="westFour___eastTwo_136" type="car" from="westFour___intersectionThirteen" to="intersectionEight___eastTwo" depart="136" />    <trip id="southFour___westFour_138" type="car" from="southFour___intersectionSixteen" to="intersectionThirteen___westFour" depart="138" />    <trip id="eastFour___northThree_139" type="car" from="eastFour___intersectionSixteen" to="intersectionThree___northThree" depart="139" />    <trip id="northOne___southTwo_139" type="car" from="northOne___intersectionOne" to="intersectionFourteen___southTwo" depart="139" />    <trip id="northFour___westThree_140" type="car" from="northFour___intersectionFour" to="intersectionNine___westThree" depart="140" />    <trip id="northThree___northTwo_140" type="car" from="northThree___intersectionThree" to="intersectionTwo___northTwo" depart="140" />    <trip id="northOne___westOne_141" type="car" from="northOne___intersectionOne" to="intersectionOne___westOne" depart="141" />    <trip id="northOne___westFour_143" type="car" from="northOne___intersectionOne" to="intersectionThirteen___westFour" depart="143" />    <trip id="westOne___southTwo_144" type="car" from="westOne___intersectionOne" to="intersectionFourteen___southTwo" depart="144" />    <trip id="eastFour___eastOne_146" type="car" from="eastFour___intersectionSixteen" to="intersectionFour___eastOne" depart="146" />    <trip id="southOne___westThree_147" type="car" from="southOne___intersectionThirteen" to="intersectionNine___westThree" depart="147" />    <trip id="westFour___eastFour_149" type="car" from="westFour___intersectionThirteen" to="intersectionSixteen___eastFour" depart="149" />    <trip id="northOne___eastTwo_151" type="car" from="northOne___intersectionOne" to="intersectionEight___eastTwo" depart="151" />    <trip id="westThree___eastFour_151" type="car" from="westThree___intersectionNine" to="intersectionSixteen___eastFour" depart="151" />    <trip id="southFour___westOne_152" type="car" from="southFour___intersectionSixteen" to="intersectionOne___westOne" depart="152" />    <trip id="northFour___westOne_153" type="car" from="northFour___intersectionFour" to="intersectionOne___westOne" depart="153" />    <trip id="southThree___southTwo_155" type="car" from="southThree___intersectionFifthteen" to="intersectionFourteen___southTwo" depart="155" />    <trip id="westTwo___westOne_158" type="car" from="westTwo___intersectionFive" to="intersectionOne___westOne" depart="158" />    <trip id="southFour___northTwo_159" type="car" from="southFour___intersectionSixteen" to="intersectionTwo___northTwo" depart="159" />    <trip id="westOne___eastOne_161" type="car" from="westOne___intersectionOne" to="intersectionFour___eastOne" depart="161" />    <trip id="westTwo___southOne_161" type="car" from="westTwo___intersectionFive" to="intersectionThirteen___southOne" depart="161" />    <trip id="northThree___westFour_162" type="car" from="northThree___intersectionThree" to="intersectionThirteen___westFour" depart="162" />    <trip id="southFour___eastThree_162" type="car" from="southFour___intersectionSixteen" to="intersectionTwelve___eastThree" depart="162" />    <trip id="southTwo___eastThree_162" type="car" from="southTwo___intersectionFourteen" to="intersectionTwelve___eastThree" depart="162" />    <trip id="northTwo___eastOne_164" type="car" from="northTwo___intersectionTwo" to="intersectionFour___eastOne" depart="164" />    <trip id="eastTwo___southTwo_167" type="car" from="eastTwo___intersectionEight" to="intersectionFourteen___southTwo" depart="167" />    <trip id="northOne___southThree_168" type="car" from="northOne___intersectionOne" to="intersectionFifthteen___southThree" depart="168" />    <trip id="eastThree___eastFour_169" type="car" from="eastThree___intersectionTwelve" to="intersectionSixteen___eastFour" depart="169" />    <trip id="southThree___northTwo_170" type="car" from="southThree___intersectionFifthteen" to="intersectionTwo___northTwo" depart="170" />    <trip id="northFour___southThree_171" type="car" from="northFour___intersectionFour" to="intersectionFifthteen___southThree" depart="171" />    <trip id="southTwo___southFour_172" type="car" from="southTwo___intersectionFourteen" to="intersectionSixteen___southFour" depart="172" />    <trip id="southTwo___northThree_174" type="car" from="southTwo___intersectionFourteen" to="intersectionThree___northThree" depart="174" />    <trip id="southFour___westTwo_176" type="car" from="southFour___intersectionSixteen" to="intersectionFive___westTwo" depart="176" />    <trip id="southThree___northTwo_176" type="car" from="southThree___intersectionFifthteen" to="intersectionTwo___northTwo" depart="176" />    <trip id="westOne___eastFour_178" type="car" from="westOne___intersectionOne" to="intersectionSixteen___eastFour" depart="178" />    <trip id="northThree___northTwo_179" type="car" from="northThree___intersectionThree" to="intersectionTwo___northTwo" depart="179" />    <trip id="southFour___northOne_179" type="car" from="southFour___intersectionSixteen" to="intersectionOne___northOne" depart="179" />    <trip id="westOne___eastThree_180" type="car" from="westOne___intersectionOne" to="intersectionTwelve___eastThree" depart="180" />    <trip id="westOne___northThree_181" type="car" from="westOne___intersectionOne" to="intersectionThree___northThree" depart="181" />    <trip id="northOne___northTwo_182" type="car" from="northOne___intersectionOne" to="intersectionTwo___northTwo" depart="182" />    <trip id="eastTwo___northFour_183" type="car" from="eastTwo___intersectionEight" to="intersectionFour___northFour" depart="183" />    <trip id="northOne___westTwo_184" type="car" from="northOne___intersectionOne" to="intersectionFive___westTwo" depart="184" />    <trip id="westTwo___northThree_184" type="car" from="westTwo___intersectionFive" to="intersectionThree___northThree" depart="184" />    <trip id="westTwo___southThree_185" type="car" from="westTwo___intersectionFive" to="intersectionFifthteen___southThree" depart="185" />    <trip id="westThree___eastThree_186" type="car" from="westThree___intersectionNine" to="intersectionTwelve___eastThree" depart="186" />    <trip id="eastOne___southTwo_188" type="car" from="eastOne___intersectionFour" to="intersectionFourteen___southTwo" depart="188" />    <trip id="eastThree___westThree_189" type="car" from="eastThree___intersectionTwelve" to="intersectionNine___westThree" depart="189" />    <trip id="northOne___westFour_189" type="car" from="northOne___intersectionOne" to="intersectionThirteen___westFour" depart="189" />    <trip id="westFour___southTwo_189" type="car" from="westFour___intersectionThirteen" to="intersectionFourteen___southTwo" depart="189" />    <trip id="southFour___eastThree_191" type="car" from="southFour___intersectionSixteen" to="intersectionTwelve___eastThree" depart="191" />    <trip id="southOne___southFour_191" type="car" from="southOne___intersectionThirteen" to="intersectionSixteen___southFour" depart="191" />    <trip id="eastThree___westThree_194" type="car" from="eastThree___intersectionTwelve" to="intersectionNine___westThree" depart="194" />    <trip id="westThree___eastTwo_195" type="car" from="westThree___intersectionNine" to="intersectionEight___eastTwo" depart="195" />    <trip id="eastOne___westThree_196" type="car" from="eastOne___intersectionFour" to="intersectionNine___westThree" depart="196" />    <trip id="eastThree___northThree_197" type="car" from="eastThree___intersectionTwelve" to="intersectionThree___northThree" depart="197" />    <trip id="northFour___northTwo_197" type="car" from="northFour___intersectionFour" to="intersectionTwo___northTwo" depart="197" />    <trip id="northThree___northFour_197" type="car" from="northThree___intersectionThree" to="intersectionFour___northFour" depart="197" />    <trip id="southTwo___southOne_197" type="car" from="southTwo___intersectionFourteen" to="intersectionThirteen___southOne" depart="197" />    <trip id="northOne___southFour_198" type="car" from="northOne___intersectionOne" to="intersectionSixteen___southFour" depart="198" />    <trip id="westTwo___eastTwo_199" type="car" from="westTwo___intersectionFive" to="intersectionEight___eastTwo" depart="199" />    <trip id="westThree___southFour_200" type="car" from="westThree___intersectionNine" to="intersectionSixteen___southFour" depart="200" />    <trip id="westTwo___northThree_200" type="car" from="westTwo___intersectionFive" to="intersectionThree___northThree" depart="200" />    <trip id="eastThree___northOne_201" type="car" from="eastThree___intersectionTwelve" to="intersectionOne___northOne" depart="201" />    <trip id="northOne___eastFour_201" type="car" from="northOne___intersectionOne" to="intersectionSixteen___eastFour" depart="201" />    <trip id="eastOne___northTwo_203" type="car" from="eastOne___intersectionFour" to="intersectionTwo___northTwo" depart="203" />    <trip id="westFour___northTwo_203" type="car" from="westFour___intersectionThirteen" to="intersectionTwo___northTwo" depart="203" />    <trip id="northOne___westTwo_205" type="car" from="northOne___intersectionOne" to="intersectionFive___westTwo" depart="205" />    <trip id="southOne___southThree_205" type="car" from="southOne___intersectionThirteen" to="intersectionFifthteen___southThree" depart="205" />    <trip id="eastOne___southThree_207" type="car" from="eastOne___intersectionFour" to="intersectionFifthteen___southThree" depart="207" />    <trip id="westFour___northTwo_207" type="car" from="westFour___intersectionThirteen" to="intersectionTwo___northTwo" depart="207" />    <trip id="eastFour___eastOne_210" type="car" from="eastFour___intersectionSixteen" to="intersectionFour___eastOne" depart="210" />    <trip id="eastOne___northThree_210" type="car" from="eastOne___intersectionFour" to="intersectionThree___northThree" depart="210" />    <trip id="eastOne___southThree_212" type="car" from="eastOne___intersectionFour" to="intersectionFifthteen___southThree" depart="212" />    <trip id="northThree___eastThree_212" type="car" from="northThree___intersectionThree" to="intersectionTwelve___eastThree" depart="212" />    <trip id="southThree___eastFour_212" type="car" from="southThree___intersectionFifthteen" to="intersectionSixteen___eastFour" depart="212" />    <trip id="eastFour___westOne_213" type="car" from="eastFour___intersectionSixteen" to="intersectionOne___westOne" depart="213" />    <trip id="eastOne___northThree_213" type="car" from="eastOne___intersectionFour" to="intersectionThree___northThree" depart="213" />    <trip id="eastThree___westTwo_214" type="car" from="eastThree___intersectionTwelve" to="intersectionFive___westTwo" depart="214" />    <trip id="eastOne___northTwo_215" type="car" from="eastOne___intersectionFour" to="intersectionTwo___northTwo" depart="215" />    <trip id="northFour___westThree_215" type="car" from="northFour___intersectionFour" to="intersectionNine___westThree" depart="215" />    <trip id="northThree___westOne_216" type="car" from="northThree___intersectionThree" to="intersectionOne___westOne" depart="216" />    <trip id="southTwo___eastThree_218" type="car" from="southTwo___intersectionFourteen" to="intersectionTwelve___eastThree" depart="218" />    <trip id="eastFour___northTwo_219" type="car" from="eastFour___intersectionSixteen" to="intersectionTwo___northTwo" depart="219" />    <trip id="southTwo___southThree_219" type="car" from="southTwo___intersectionFourteen" to="intersectionFifthteen___southThree" depart="219" />    <trip id="southOne___eastThree_220" type="car" from="southOne___intersectionThirteen" to="intersectionTwelve___eastThree" depart="220" />    <trip id="northFour___westFour_222" type="car" from="northFour___intersectionFour" to="intersectionThirteen___westFour" depart="222" />    <trip id="westOne___southOne_225" type="car" from="westOne___intersectionOne" to="intersectionThirteen___southOne" depart="225" />    <trip id="eastFour___northThree_226" type="car" from="eastFour___intersectionSixteen" to="intersectionThree___northThree" depart="226" />    <trip id="eastThree___northFour_226" type="car" from="eastThree___intersectionTwelve" to="intersectionFour___northFour" depart="226" />    <trip id="northFour___westTwo_226" type="car" from="northFour___intersectionFour" to="intersectionFive___westTwo" depart="226" />    <trip id="southTwo___northTwo_226" type="car" from="southTwo___intersectionFourteen" to="intersectionTwo___northTwo" depart="226" />    <trip id="westTwo___eastThree_226" type="car" from="westTwo___intersectionFive" to="intersectionTwelve___eastThree" depart="226" />    <trip id="eastFour___southThree_227" type="car" from="eastFour___intersectionSixteen" to="intersectionFifthteen___southThree" depart="227" />    <trip id="northFour___southFour_227" type="car" from="northFour___intersectionFour" to="intersectionSixteen___southFour" depart="227" />    <trip id="westFour___eastTwo_227" type="car" from="westFour___intersectionThirteen" to="intersectionEight___eastTwo" depart="227" />    <trip id="eastThree___southOne_229" type="car" from="eastThree___intersectionTwelve" to="intersectionThirteen___southOne" depart="229" />    <trip id="westFour___southFour_229" type="car" from="westFour___intersectionThirteen" to="intersectionSixteen___southFour" depart="229" />    <trip id="southOne___eastTwo_230" type="car" from="southOne___intersectionThirteen" to="intersectionEight___eastTwo" depart="230" />    <trip id="southOne___northThree_231" type="car" from="southOne___intersectionThirteen" to="intersectionThree___northThree" depart="231" />    <trip id="eastOne___eastFour_233" type="car" from="eastOne___intersectionFour" to="intersectionSixteen___eastFour" depart="233" />    <trip id="northFour___southFour_233" type="car" from="northFour___intersectionFour" to="intersectionSixteen___southFour" depart="233" />    <trip id="northFour___westOne_234" type="car" from="northFour___intersectionFour" to="intersectionOne___westOne" depart="234" />    <trip id="eastFour___eastTwo_236" type="car" from="eastFour___intersectionSixteen" to="intersectionEight___eastTwo" depart="236" />    <trip id="westTwo___northThree_236" type="car" from="westTwo___intersectionFive" to="intersectionThree___northThree" depart="236" />    <trip id="eastFour___northThree_237" type="car" from="