
        <routes>
            <vType id="car" accel="0.8" decel="4.5" sigma="0.5" length="5" minGap="2.5" maxSpeed="15" guiShape="passenger"/>
            <trip id="eastBottom___westTop_1" type="car" from="eastBottom___intersectionSE" to="intersectionNW___westTop" depart="1" />    <trip id="northRight___southLeft_2" type="car" from="northRight___intersectionNE" to="intersectionSW___southLeft" depart="2" />    <trip id="eastTop___westBottom_3" type="car" from="eastTop___intersectionNE" to="intersectionSW___westBottom" depart="3" />    <trip id="northRight___eastBottom_3" type="car" from="northRight___intersectionNE" to="intersectionSE___eastBottom" depart="3" />    <trip id="southLeft___eastTop_4" type="car" from="southLeft___intersectionSW" to="intersectionNE___eastTop" depart="4" />    <trip id="southRight___eastTop_4" type="car" from="southRight___intersectionSE" to="intersectionNE___eastTop" depart="4" />    <trip id="northRight___southRight_5" type="car" from="northRight___intersectionNE" to="intersectionSE___southRight" depart="5" />    <trip id="eastBottom___westTop_7" type="car" from="eastBottom___intersectionSE" to="intersectionNW___westTop" depart="7" />    <trip id="southRight___northLeft_7" type="car" from="southRight___intersectionSE" to="intersectionNW___northLeft" depart="7" />    <trip id="northLeft___southRight_9" type="car" from="northLeft___intersectionNW" to="intersectionSE___southRight" depart="9" />    <trip id="westTop___westBottom_9" type="car" from="westTop___intersectionNW" to="intersectionSW___westBottom" depart="9" />    <trip id="southLeft___westTop_15" type="car" from="southLeft___intersectionSW" to="intersectionNW___westTop" depart="15" />    <trip id="southRight___westBottom_17" type="car" from="southRight___intersectionSE" to="intersectionSW___westBottom" depart="17" />    <trip id="eastTop___westBottom_21" type="car" from="eastTop___intersectionNE" to="intersectionSW___westBottom" depart="21" />    <trip id="eastTop___southLeft_26" type="car" from="eastTop___intersectionNE" to="intersectionSW___southLeft" depart="26" />    <trip id="northLeft___westBottom_26" type="car" from="northLeft___intersectionNW" to="intersectionSW___westBottom" depart="26" />    <trip id="northRight___westTop_27" type="car" from="northRight___intersectionNE" to="intersectionNW___westTop" depart="27" />    <trip id="northLeft___southLeft_30" type="car" from="northLeft___intersectionNW" to="intersectionSW___southLeft" depart="30" />    <trip id="southRight___southLeft_30" type="car" from="southRight___intersectionSE" to="intersectionSW___southLeft" depart="30" />    <trip id="eastBottom___southRight_32" type="car" from="eastBottom___intersectionSE" to="intersectionSE___southRight" depart="32" />    <trip id="southLeft___eastBottom_38" type="car" from="southLeft___intersectionSW" to="intersectionSE___eastBottom" depart="38" />    <trip id="northRight___southRight_41" type="car" from="northRight___intersectionNE" to="intersectionSE___southRight" depart="41" />    <trip id="eastBottom___southLeft_43" type="car" from="eastBottom___intersectionSE" to="intersectionSW___southLeft" depart="43" />    <trip id="northRight___westTop_43" type="car" from="northRight___intersectionNE" to="intersectionNW___westTop" depart="43" />    <trip id="southRight___eastBottom_46" type="car" from="southRight___intersectionSE" to="intersectionSE___eastBottom" depart="46" />    <trip id="westBottom___eastTop_46" type="car" from="westBottom___intersectionSW" to="intersectionNE___eastTop" depart="46" />    <trip id="southRight___northRight_48" type="car" from="southRight___intersectionSE" to="intersectionNE___northRight" depart="48" />    <trip id="westTop___southRight_48" type="car" from="westTop___intersectionNW" to="intersectionSE___southRight" depart="48" />    <trip id="northRight___southLeft_49" type="car" from="northRight___intersectionNE" to="intersectionSW___southLeft" depart="49" />    <trip id="westBottom___southLeft_50" type="car" from="westBottom___intersectionSW" to="intersectionSW___southLeft" depart="50" />    <trip id="northLeft___northRight_55" type="car" from="northLeft___intersectionNW" to="intersectionNE___northRight" depart="55" />    <trip id="westTop___northLeft_56" type="car" from="westTop___intersectionNW" to="intersectionNW___northLeft" depart="56" />    <trip id="southRight___westTop_58" type="car" from="southRight___intersectionSE" to="intersectionNW___westTop" depart="58" />    <trip id="northLeft___westTop_59" type="car" from="northLeft___intersectionNW" to="intersectionNW___westTop" depart="59" />    <trip id="eastBottom___northLeft_61" type="car" from="eastBottom___intersectionSE" to="intersectionNW___northLeft" depart="61" />    <trip id="northLeft___southLeft_62" type="car" from="northLeft___intersectionNW" to="intersectionSW___southLeft" depart="62" />    <trip id="northLeft___southLeft_63" type="car" from="northLeft___intersectionNW" to="intersectionSW___southLeft" depart="63" />    <trip id="eastBottom___southLeft_65" type="car" from="eastBottom___intersectionSE" to="intersectionSW___southLeft" depart="65" />    <trip id="westBottom___northLeft_74" type="car" from="westBottom___intersectionSW" to="intersectionNW___northLeft" depart="74" />    <trip id="northLeft___westBottom_76" type="car" from="northLeft___intersectionNW" to="intersectionSW___westBottom" depart="76" />    <trip id="eastBottom___westTop_79" type="car" from="eastBottom___intersectionSE" to="intersectionNW___westTop" depart="79" />    <trip id="eastTop___westTop_80" type="car" from="eastTop___intersectionNE" to="intersectionNW___westTop" depart="80" />    <trip id="southLeft___westBottom_81" type="car" from="southLeft___intersectionSW" to="intersectionSW___westBottom" depart="81" />    <trip id="southRight___southLeft_83" type="car" from="southRight___intersectionSE" to="intersectionSW___southLeft" depart="83" />    <trip id="northLeft___eastTop_85" type="car" from="northLeft___intersectionNW" to="intersectionNE___eastTop" depart="85" />    <trip id="southLeft___westBottom_85" type="car" from="southLeft___intersectionSW" to="intersectionSW___westBottom" depart="85" />    <trip id="eastBottom___northLeft_87" type="car" from="eastBottom___intersectionSE" to="intersectionNW___northLeft" depart="87" />    <trip id="eastBottom___westTop_93" type="car" from="eastBottom___intersectionSE" to="intersectionNW___westTop" depart="93" />    <trip id="northRight___northLeft_93" type="car" from="northRight___intersectionNE" to="intersectionNW___northLeft" depart="93" />    <trip id="eastTop___westBottom_94" type="car" from="eastTop___intersectionNE" to="intersectionSW___westBottom" depart="94" />    <trip id="southLeft___eastTop_95" type="car" from="southLeft___intersectionSW" to="intersectionNE___eastTop" depart="95" />    <trip id="northLeft___eastBottom_96" type="car" from="northLeft___intersectionNW" to="intersectionSE___eastBottom" depart="96" />    <trip id="southRight___northLeft_96" type="car" from="southRight___intersectionSE" to="intersectionNW___northLeft" depart="96" />    <trip id="northLeft___southRight_100" type="car" from="northLeft___intersectionNW" to="intersectionSE___southRight" depart="100" />    <trip id="northRight___westBottom_100" type="car" from="northRight___intersectionNE" to="intersectionSW___westBottom" depart="100" />    <trip id="northRight___eastBottom_101" type="car" from="northRight___intersectionNE" to="intersectionSE___eastBottom" depart="101" />    <trip id="southLeft___eastTop_104" type="car" from="southLeft___intersectionSW" to="intersectionNE___eastTop" depart="104" />    <trip id="northRight___southRight_106" type="car" from="northRight___intersectionNE" to="intersectionSE___southRight" depart="106" />    <trip id="eastTop___eastBottom_107" type="car" from="eastTop___intersectionNE" to="intersectionSE___eastBottom" depart="107" />    <trip id="westTop___eastTop_107" type="car" from="westTop___intersectionNW" to="intersectionNE___eastTop" depart="107" />    <trip id="southLeft___westBottom_110" type="car" from="southLeft___intersectionSW" to="intersectionSW___westBottom" depart="110" />    <trip id="southRight___northLeft_113" type="car" from="southRight___intersectionSE" to="intersectionNW___northLeft" depart="113" />    <trip id="westTop___northRight_113" type="car" from="westTop___intersectionNW" to="intersectionNE___northRight" depart="113" />    <trip id="northLeft___westBottom_114" type="car" from="northLeft___intersectionNW" to="intersectionSW___westBottom" depart="114" />    <trip id="southRight___eastBottom_122" type="car" from="southRight___intersectionSE" to="intersectionSE___eastBottom" depart="122" />    <trip id="northRight___eastTop_123" type="car" from="northRight___intersectionNE" to="intersectionNE___eastTop" depart="123" />    <trip id="southLeft___westTop_125" type="car" from="southLeft___intersectionSW" to="intersectionNW___westTop" depart="125" />    <trip id="westBottom___northRight_127" type="car" from="westBottom___intersectionSW" to="intersectionNE___northRight" depart="127" />    <trip id="northRight___southRight_129" type="car" from="northRight___intersectionNE" to="intersectionSE___southRight" depart="129" />    <trip id="northLeft___eastTop_130" type="car" from="northLeft___intersectionNW" to="intersectionNE___eastTop" depart="130" />    <trip id="westBottom___southRight_133" type="car" from="westBottom___intersectionSW" to="intersectionSE___southRight" depart="133" />    <trip id="northRight___westBottom_140" type="car" from="northRight___intersectionNE" to="intersectionSW___westBottom" depart="140" />    <trip id="eastBottom___westTop_141" type="car" from="eastBottom___intersectionSE" to="intersectionNW___westTop" depart="141" />    <trip id="eastBottom___westTop_142" type="car" from="eastBottom___intersectionSE" to="intersectionNW___westTop" depart="142" />    <trip id="eastTop___southLeft_143" type="car" from="eastTop___intersectionNE" to="intersectionSW___southLeft" depart="143" />    <trip id="westTop___southLeft_150" type="car" from="westTop___intersectionNW" to="intersectionSW___southLeft" depart="150" />    <trip id="westBottom___southLeft_152" type="car" from="westBottom___intersectionSW" to="intersectionSW___southLeft" depart="152" />    <trip id="eastTop___westTop_155" type="car" from="eastTop___intersectionNE" to="intersectionNW___westTop" depart="155" />    <trip id="westTop___eastTop_157" type="car" from="westTop___intersectionNW" to="intersectionNE___eastTop" depart="157" />    <trip id="eastTop___westTop_160" type="car" from="eastTop___intersectionNE" to="intersectionNW___westTop" depart="160" />    <trip id="northRight___eastTop_161" type="car" from="northRight___intersectionNE" to="intersectionNE___eastTop" depart="161" />    <trip id="eastBottom___southLeft_163" type="car" from="eastBottom___intersectionSE" to="intersectionSW___southLeft" depart="163" />    <trip id="westTop___eastTop_175" type="car" from="westTop___intersectionNW" to="intersectionNE___eastTop" depart="175" />    <trip id="northLeft___westBottom_177" type="car" from="northLeft___intersectionNW" to="intersectionSW___westBottom" depart="177" />    <trip id="westBottom___northRight_177" type="car" from="westBottom___intersectionSW" to="intersectionNE___northRight" depart="177" />    <trip id="northRight___westBottom_183" type="car" from="northRight___intersectionNE" to="intersectionSW___westBottom" depart="183" />    <trip id="westTop___southLeft_184" type="car" from="westTop___intersectionNW" to="intersectionSW___southLeft" depart="184" />    <trip id="southRight___eastTop_185" type="car" from="southRight___intersectionSE" to="intersectionNE___eastTop" depart="185" />    <trip id="westBottom___southLeft_185" type="car" from="westBottom___intersectionSW" to="intersectionSW___southLeft" depart="185" />    <trip id="northRight___westBottom_189" type="car" from="northRight___intersectionNE" to="intersectionSW___westBottom" depart="189" />    <trip id="southRight___eastBottom_189" type="car" from="southRight___intersectionSE" to="intersectionSE___eastBottom" depart="189" />    <trip id="southRight___westTop_192" type="car" from="southRight___intersectionSE" to="intersectionNW___westTop" depart="192" />    <trip id="eastTop___eastBottom_193" type="car" from="eastTop___intersectionNE" to="intersectionSE___eastBottom" depart="193" />    <trip id="northRight___southLeft_193" type="car" from="northRight___intersectionNE" to="intersectionSW___southLeft" depart="193" />    <trip id="eastBottom___westTop_194" type="car" from="eastBottom___intersectionSE" to="intersectionNW___westTop" depart="194" />    <trip id="northLeft___westBottom_194" type="car" from="northLeft___intersectionNW" to="intersectionSW___westBottom" depart="194" />    <trip id="northRight___northLeft_194" type="car" from="northRight___intersectionNE" to="intersectionNW___northLeft" depart="194" />    <trip id="eastBottom___southLeft_195" type="car" from="eastBottom___intersectionSE" to="intersectionSW___southLeft" depart="195" />    <trip id="eastTop___westBottom_195" type="car" from="eastTop___intersectionNE" to="intersectionSW___westBottom" depart="195" />    <trip id="eastBottom___northRight_198" type="car" from="eastBottom___intersectionSE" to="intersectionNE___northRight" depart="198" />    <trip id="eastTop___northLeft_198" type="car" from="eastTop___intersectionNE" to="intersectionNW___northLeft" depart="198" />    <trip id="southRight___westBottom_199" type="car" from="southRight___intersectionSE" to="intersectionSW___westBottom" depart="199" />    <trip id="northLeft___eastTop_201" type="car" from="northLeft___intersectionNW" to="intersectionNE___eastTop" depart="201" />    <trip id="southRight___northRight_202" type="car" from="southRight___intersectionSE" to="intersectionNE___northRight" depart="202" />    <trip id="eastTop___eastBottom_203" type="car" from="eastTop___intersectionNE" to="intersectionSE___eastBottom" depart="203" />    <trip id="eastTop___westTop_204" type="car" from="eastTop___intersectionNE" to="intersectionNW___westTop" depart="204" />    <trip id="eastBottom___southLeft_206" type="car" from="eastBottom___intersectionSE" to="intersectionSW___southLeft" depart="206" />    <trip id="southLeft___northLeft_207" type="car" from="southLeft___intersectionSW" to="intersectionNW___northLeft" depart="207" />    <trip id="westBottom___eastTop_207" type="car" from="westBottom___intersectionSW" to="intersectionNE___eastTop" depart="207" />    <trip id="westBottom___southLeft_208" type="car" from="westBottom___intersectionSW" to="intersectionSW___southLeft" depart="208" />    <trip id="southLeft___northLeft_209" type="car" from="southLeft___intersectionSW" to="intersectionNW___northLeft" depart="209" />    <trip id="southRight___southLeft_209" type="car" from="southRight___intersectionSE" to="intersectionSW___southLeft" depart="209" />    <trip id="southRight___northRight_211" type="car" from="southRight___intersectionSE" to="intersectionNE___northRight" depart="211" />    <trip id="westBottom___northRight_212" type="car" from="westBottom___intersectionSW" to="intersectionNE___northRight" depart="212" />    <trip id="eastTop___southRight_213" type="car" from="eastTop___intersectionNE" to="intersectionSE___southRight" depart="213" />    <trip id="northLeft___westBottom_215" type="car" from="northLeft___intersectionNW" to="intersectionSW___westBottom" depart="215" />    <trip id="eastBottom___southLeft_216" type="car" from="eastBottom___intersectionSE" to="intersectionSW___southLeft" depart="216" />    <trip id="northLeft___northRight_216" type="car" from="northLeft___intersectionNW" to="intersectionNE___northRight" depart="216" />    <trip id="southLeft___northRight_220" type="car" from="southLeft___intersectionSW" to="intersectionNE___northRight" depart="220" />    <trip id="eastBottom___westBottom_222" type="car" from="eastBottom___intersectionSE" to="intersectionSW___westBottom" depart="222" />    <trip id="westTop___eastTop_225" type="car" from="westTop___intersectionNW" to="intersectionNE___eastTop" depart="225" />    <trip id="northRight___eastBottom_229" type="car" from="northRight___intersectionNE" to="intersectionSE___eastBottom" depart="229" />    <trip id="southRight___westTop_230" type="car" from="southRight___intersectionSE" to="intersectionNW___westTop" depart="230" />    <trip id="northRight___westTop_231" type="car" from="northRight___intersectionNE" to="intersectionNW___westTop" depart="231" />    <trip id="northRight___westBottom_235" type="car" from="northRight___intersectionNE" to="intersectionSW___westBottom" depart="235" />    <trip id="eastTop___eastBottom_237" type="car" from="eastTop___intersectionNE" to="intersectionSE___eastBottom" depart="237" />    <trip id="northRight___westTop_238" type="car" from="northRight___intersectionNE" to="intersectionNW___westTop" depart="238" />    <trip id="westBottom___westTop_239" type="car" from="westBottom___intersectionSW" to="intersectionNW___westTop" depart="239" />    <trip id="southRight___southLeft_245" type="car" from="southRight___intersectionSE" to="intersectionSW___southLeft" depart="245" />    <trip id="northRight___eastBottom_252" type="car" from="northRight___intersectionNE" to="intersectionSE___eastBottom" depart="252" />    <trip id="eastBottom___northLeft_257" type="car" from="eastBottom___intersectionSE" to="intersectionNW___northLeft" depart="257" />    <trip id="westBottom___northLeft_257" type="car" from="westBottom___intersectionSW" to="intersectionNW___northLeft" depart="257" />    <trip id="westTop___southLeft_258" type="car" from="westTop___intersectionNW" to="intersectionSW___southLeft" depart="258" />    <trip id="southLeft___westTop_259" type="car" from="southLeft___intersectionSW" to="intersectionNW___westTop" depart="259" />    <trip id="eastBottom___westBottom_260" type="car" from="eastBottom___intersectionSE" to="intersectionSW___westBottom" depart="260" />    <trip id="eastTop___southRight_261" type="car" from="eastTop___intersectionNE" to="intersectionSE___southRight" depart="261" />    <trip id="northRight___westTop_262" type="car" from="northRight___intersectionNE" to="intersectionNW___westTop" depart="262" />    <trip id="northLeft___eastBottom_263" type="car" from="northLeft___intersectionNW" to="intersectionSE___eastBottom" depart="263" />    <trip id="eastBottom___westBottom_264" type="car" from="eastBottom___intersectionSE" to="intersectionSW___westBottom" depart="264" />    <trip id="southLeft___southRight_266" type="car" from="southLeft___intersectionSW" to="intersectionSE___southRight" depart="266" />    <trip id="westBottom___northRight_266" type="car" from="westBottom___intersectionSW" to="intersectionNE___northRight" depart="266" />    <trip id="southLeft___eastTop_271" type="car" from="southLeft___intersectionSW" to="intersectionNE___eastTop" depart="271" />    <trip id="eastBottom___northRight_272" type="car" from="eastBottom___intersectionSE" to="intersectionNE___northRight" depart="272" />    <trip id="northRight___southRight_272" type="car" from="northRight___intersectionNE" to="intersectionSE___southRight" depart="272" />    <trip id="southLeft___westBottom_274" type="car" from="southLeft___intersectionSW" to="intersectionSW___westBottom" depart="274" />    <trip id="southRight___eastBottom_278" type="car" from="southRight___intersectionSE" to="intersectionSE___eastBottom" depart="278" />    <trip id="southLeft___northRight_279" type="car" from="southLeft___intersectionSW" to="intersectionNE___northRight" depart="279" />    <trip id="westBottom___northLeft_279" type="car" from="westBottom___intersectionSW" to="intersectionNW___northLeft" depart="279" />    <trip id="westTop___northLeft_280" type="car" from="westTop___intersectionNW" to="intersectionNW___northLeft" depart="280" />    <trip id="westBottom___northLeft_293" type="car" from="westBottom___intersectionSW" to="intersectionNW___northLeft" depart="293" />    <trip id="eastBottom___westBottom_296" type="car" from="eastBottom___intersectionSE" to="intersectionSW___westBottom" depart="296" />    <trip id="eastTop___southLeft_296" type="car" from="eastTop___intersectionNE" to="intersectionSW___southLeft" depart="296" />    <trip id="eastTop___southRight_297" type="car" from="eastTop___intersectionNE" to="intersectionSE___southRight" depart="297" />    <trip id="southRight___northRight_299" type="car" from="southRight___intersectionSE" to="intersectionNE___northRight" depart="299" />    <trip id="eastTop___northRight_304" type="car" from="eastTop___intersectionNE" to="intersectionNE___northRight" depart="304" />    <trip id="northLeft___eastTop_308" type="car" from="northLeft___intersectionNW" to="intersectionNE___eastTop" depart="308" />    <trip id="westTop___eastBottom_308" type="car" from="westTop___intersectionNW" to="intersectionSE___eastBottom" depart="308" />    <trip id="eastTop___westBottom_310" type="car" from="eastTop___intersectionNE" to="intersectionSW___westBottom" depart="310" />    <trip id="northLeft___eastTop_311" type="car" from="northLeft___intersectionNW" to="intersectionNE___eastTop" depart="311" />    <trip id="northRight___southRight_316" type="car" from="northRight___intersectionNE" to="intersectionSE___southRight" depart="316" />    <trip id="southRight___westBottom_317" type="car" from="southRight___intersectionSE" to="intersectionSW___westBottom" depart="317" />    <trip id="westBottom___eastTop_317" type="car" from="westBottom___intersectionSW" to="intersectionNE___eastTop" depart="317" />    <trip id="southRight___westBottom_318" type="car" from="southRight___intersectionSE" to="intersectionSW___westBottom" depart="318" />    <trip id="northRight___westTop_320" type="car" from="northRight___intersectionNE" to="intersectionNW___westTop" depart="320" />    <trip id="northRight___northLeft_322" type="car" from="northRight___intersectionNE" to="intersectionNW___northLeft" depart="322" />    <trip id="southRight___westBottom_322" type="car" from="southRight___intersectionSE" to="intersectionSW___westBottom" depart="322" />    <trip id="northRight___northLeft_323" type="car" from="northRight___intersectionNE" to="intersectionNW___northLeft" depart="323" />    <trip id="eastBottom___northLeft_324" type="car" from="eastBottom___intersectionSE" to="intersectionNW___northLeft" depart="324" />    <trip id="northLeft___eastTop_325" type="car" from="northLeft___intersectionNW" to="intersectionNE___eastTop" depart="325" />    <trip id="eastBottom___westBottom_327" type="car" from="eastBottom___intersectionSE" to="intersectionSW___westBottom" depart="327" />    <trip id="southRight___southLeft_327" type="car" from="southRight___intersectionSE" to="intersectionSW___southLeft" depart="327" />    <trip id="westTop___northRight_327" type="car" from="westTop___intersectionNW" to="intersectionNE___northRight" depart="327" />    <trip id="eastBottom___eastTop_328" type="car" from="eastBottom___intersectionSE" to="intersectionNE___eastTop" depart="328" />    <trip id="northRight___northLeft_332" type="car" from="northRight___intersectionNE" to="intersectionNW___northLeft" depart="332" />    <trip id="northRight___southRight_333" type="car" from="northRight___intersectionNE" to="intersectionSE___southRight" depart="333" />    <trip id="southLeft___westTop_335" type="car" from="southLeft___intersectionSW" to="intersectionNW___westTop" depart="335" />    <trip id="westBottom___eastTop_335" type="car" from="westBottom___intersectionSW" to="intersectionNE___eastTop" depart="335" />    <trip id="eastTop___westBottom_336" type="car" from="eastTop___intersectionNE" to="intersectionSW___westBottom" depart="336" />    <trip id="eastBottom___westTop_342" type="car" from="eastBottom___intersectionSE" to="intersectionNW___westTop" depart="342" />    <trip id="northLeft___southLeft_352" type="car" from="northLeft___intersectionNW" to="intersectionSW___southLeft" depart="352" />    <trip id="southLeft___northLeft_352" type="car" from="southLeft___intersectionSW" to="intersectionNW___northLeft" depart="352" />    <trip id="westBottom___northLeft_355" type="car" from="westBottom___intersectionSW" to="intersectionNW___northLeft" depart="355" />    <trip id="southLeft___westBottom_356" type="car" from="southLeft___intersectionSW" to="intersectionSW___westBottom" depart="356" />    <trip id="eastTop___southRight_362" type="car" from="eastTop___intersectionNE" to="intersectionSE___southRight" depart="362" />    <trip id="northRight___southRight_363" type="car" from="northRight___intersectionNE" to="intersectionSE___southRight" depart="363" />    <trip id="southLeft___westTop_364" type="car" from="southLeft___intersectionSW" to="intersectionNW___westTop" depart="364" />    <trip id="southRight___eastBottom_364" type="car" from="southRight___intersectionSE" to="intersectionSE___eastBottom" depart="364" />    <trip id="southRight___southLeft_365" type="car" from="southRight___intersectionSE" to="intersectionSW___southLeft" depart="365" />    <trip id="westBottom___northLeft_366" type="car" from="westBottom___intersectionSW" to="intersectionNW___northLeft" depart="366" />    <trip id="eastTop___westBottom_367" type="car" from="eastTop___intersectionNE" to="intersectionSW___westBottom" depart="367" />    <trip id="eastBottom___westBottom_370" type="car" from="eastBottom___intersectionSE" to="intersectionSW___westBottom" depart="370" />    <trip id="eastTop___northRight_370" type="car" from="eastTop___intersectionNE" to="intersectionNE___northRight" depart="370" />    <trip id="southRight___westTop_370" type="car" from="southRight___intersectionSE" to="intersectionNW___westTop" depart="370" />    <trip id="westBottom___southLeft_371" type="car" from="westBottom___intersectionSW" to="intersectionSW___southLeft" depart="371" />    <trip id="eastTop___northLeft_375" type="car" from="eastTop___intersectionNE" to="intersectionNW___northLeft" depart="375" />    <trip id="northRight___northLeft_375" type="car" from="northRight___intersectionNE" to="intersectionNW___northLeft" depart="375" />    <trip id="southRight___eastTop_380" type="car" from="southRight___intersectionSE" to="intersectionNE___eastTop" depart="380" />    <trip id="westTop___eastTop_380" type="car" from="westTop___intersectionNW" to="intersectionNE___eastTop" depart="380" />    <trip id="southLeft___eastBottom_381" type="car" from="southLeft___intersectionSW" to="intersectionSE___eastBottom" depart="381" />    <trip id="westTop___northLeft_381" type="car" from="westTop___intersectionNW" to="intersectionNW___northLeft" depart="381" />    <trip id="eastBottom___southLeft_382" type="car" from="eastBottom___intersectionSE" to="intersectionSW___southLeft" depart="382" />    <trip id="eastTop___westTop_386" type="car" from="eastTop___intersectionNE" to="intersectionNW___westTop" depart="386" />    <trip id="southRight___northRight_386" type="car" from="southRight___intersectionSE" to="intersectionNE___northRight" depart="386" />    <trip id="westTop___eastBottom_389" type="car" from="westTop___intersectionNW" to="intersectionSE___eastBottom" depart="389" />    <trip id="westTop___southLeft_391" type="car" from="westTop___intersectionNW" to="intersectionSW___southLeft" depart="391" />    <trip id="northLeft___westBottom_396" type="car" from="northLeft___intersectionNW" to="intersectionSW___westBottom" depart="396" />    <trip id="northLeft___eastTop_399" type="car" from="northLeft___intersectionNW" to="intersectionNE___eastTop" depart="399" />    <trip id="northLeft___westBottom_401" type="car" from="northLeft___intersectionNW" to="intersectionSW___westBottom" depart="401" />    <trip id="westBottom___southLeft_402" type="car" from="westBottom___intersectionSW" to="intersectionSW___southLeft" depart="402" />    <trip id="northLeft___southLeft_405" type="car" from="northLeft___intersectionNW" to="intersectionSW___southLeft" depart="405" />    <trip id="southLeft___eastTop_407" type="car" from="southLeft___intersectionSW" to="intersectionNE___eastTop" depart="407" />    <trip id="eastTop___southRight_409" type="car" from="eastTop___intersectionNE" to="intersectionSE___southRight" depart="409" />    <trip id="eastBottom___southLeft_412" type="car" from="eastBottom___intersectionSE" to="intersectionSW___southLeft" depart="412" />    <trip id="northRight___westTop_412" type="car" from="northRight___intersectionNE" to="intersectionNW___westTop" depart="412" />    <trip id="southLeft___northLeft_413" type="car" from="southLeft___intersectionSW" to="intersectionNW___northLeft" depart="413" />    <trip id="northLeft___westTop_414" type="car" from="northLeft___intersectionNW" to="intersectionNW___westTop" depart="414" />    <trip id="westBottom___eastBottom_414" type="car" from="westBottom___intersectionSW" to="intersectionSE___eastBottom" depart="414" />    <trip id="northLeft___westTop_418" type="car" from="northLeft___intersectionNW" to="intersectionNW___westTop" depart="418" />    <trip id="northLeft___eastTop_419" type="car" from="northLeft___intersectionNW" to="intersectionNE___eastTop" depart="419" />    <trip id="southRight___northRight_425" type="car" from="southRight___intersectionSE" to="intersectionNE___northRight" depart="425" />    <trip id="eastBottom___westBottom_426" type="car" from="eastBottom___intersectionSE" to="intersectionSW___westBottom" depart="426" />    <trip id="northRight___westBottom_427" type="car" from="northRight___intersectionNE" to="intersectionSW___westBottom" depart="427" />    <trip id="southRight___westBottom_429" type="car" from="southRight___intersectionSE" to="intersectionSW___westBottom" depart="429" />    <trip id="eastTop___southLeft_432" type="car" from="eastTop___intersectionNE" to="intersectionSW___southLeft" depart="432" />    <trip id="southLeft___westBottom_438" type="car" from="southLeft___intersectionSW" to="intersectionSW___westBottom" depart="438" />    <trip id="eastBottom___eastTop_444