
        <routes>
            <vType id="car" accel="0.8" decel="4.5" sigma="0.5" length="5" minGap="2.5" maxSpeed="15" guiShape="passenger"/>
            <trip id="southLeft___westTop_4" type="car" from="southLeft___intersectionSW" to="intersectionNW___westTop" depart="4" />    <trip id="northLeft___southLeft_9" type="car" from="northLeft___intersectionNW" to="intersectionSW___southLeft" depart="9" />    <trip id="northLeft___southLeft_10" type="car" from="northLeft___intersectionNW" to="intersectionSW___southLeft" depart="10" />    <trip id="northRight___southRight_16" type="car" from="northRight___intersectionNE" to="intersectionSE___southRight" depart="16" />    <trip id="westTop___southRight_16" type="car" from="westTop___intersectionNW" to="intersectionSE___southRight" depart="16" />    <trip id="eastTop___northLeft_18" type="car" from="eastTop___intersectionNE" to="intersectionNW___northLeft" depart="18" />    <trip id="eastTop___eastBottom_19" type="car" from="eastTop___intersectionNE" to="intersectionSE___eastBottom" depart="19" />    <trip id="westTop___southRight_19" type="car" from="westTop___intersectionNW" to="intersectionSE___southRight" depart="19" />    <trip id="northRight___westTop_24" type="car" from="northRight___intersectionNE" to="intersectionNW___westTop" depart="24" />    <trip id="southRight___eastTop_29" type="car" from="southRight___intersectionSE" to="intersectionNE___eastTop" depart="29" />    <trip id="southLeft___westTop_30" type="car" from="southLeft___intersectionSW" to="intersectionNW___westTop" depart="30" />    <trip id="northLeft___southLeft_32" type="car" from="northLeft___intersectionNW" to="intersectionSW___southLeft" depart="32" />    <trip id="eastTop___southLeft_37" type="car" from="eastTop___intersectionNE" to="intersectionSW___southLeft" depart="37" />    <trip id="northLeft___eastTop_38" type="car" from="northLeft___intersectionNW" to="intersectionNE___eastTop" depart="38" />    <trip id="southRight___southLeft_38" type="car" from="southRight___intersectionSE" to="intersectionSW___southLeft" depart="38" />    <trip id="eastTop___eastBottom_40" type="car" from="eastTop___intersectionNE" to="intersectionSE___eastBottom" depart="40" />    <trip id="westBottom___northLeft_42" type="car" from="westBottom___intersectionSW" to="intersectionNW___northLeft" depart="42" />    <trip id="eastTop___eastBottom_43" type="car" from="eastTop___intersectionNE" to="intersectionSE___eastBottom" depart="43" />    <trip id="northLeft___northRight_45" type="car" from="northLeft___intersectionNW" to="intersectionNE___northRight" depart="45" />    <trip id="northLeft___southLeft_46" type="car" from="northLeft___intersectionNW" to="intersectionSW___southLeft" depart="46" />    <trip id="northRight___eastTop_52" type="car" from="northRight___intersectionNE" to="intersectionNE___eastTop" depart="52" />    <trip id="southRight___eastTop_53" type="car" from="southRight___intersectionSE" to="intersectionNE___eastTop" depart="53" />    <trip id="westBottom___northLeft_55" type="car" from="westBottom___intersectionSW" to="intersectionNW___northLeft" depart="55" />    <trip id="westTop___eastTop_59" type="car" from="westTop___intersectionNW" to="intersectionNE___eastTop" depart="59" />    <trip id="northLeft___southRight_60" type="car" from="northLeft___intersectionNW" to="intersectionSE___southRight" depart="60" />    <trip id="northRight___eastTop_60" type="car" from="northRight___intersectionNE" to="intersectionNE___eastTop" depart="60" />    <trip id="northRight___westTop_61" type="car" from="northRight___intersectionNE" to="intersectionNW___westTop" depart="61" />    <trip id="southLeft___northRight_61" type="car" from="southLeft___intersectionSW" to="intersectionNE___northRight" depart="61" />    <trip id="westTop___eastTop_61" type="car" from="westTop___intersectionNW" to="intersectionNE___eastTop" depart="61" />    <trip id="northRight___southLeft_62" type="car" from="northRight___intersectionNE" to="intersectionSW___southLeft" depart="62" />    <trip id="westBottom___westTop_65" type="car" from="westBottom___intersectionSW" to="intersectionNW___westTop" depart="65" />    <trip id="northRight___westTop_66" type="car" from="northRight___intersectionNE" to="intersectionNW___westTop" depart="66" />    <trip id="eastTop___westTop_67" type="car" from="eastTop___intersectionNE" to="intersectionNW___westTop" depart="67" />    <trip id="southRight___westTop_69" type="car" from="southRight___intersectionSE" to="intersectionNW___westTop" depart="69" />    <trip id="eastBottom___northRight_71" type="car" from="eastBottom___intersectionSE" to="intersectionNE___northRight" depart="71" />    <trip id="eastTop___eastBottom_71" type="car" from="eastTop___intersectionNE" to="intersectionSE___eastBottom" depart="71" />    <trip id="southLeft___eastBottom_72" type="car" from="southLeft___intersectionSW" to="intersectionSE___eastBottom" depart="72" />    <trip id="southRight___eastBottom_72" type="car" from="southRight___intersectionSE" to="intersectionSE___eastBottom" depart="72" />    <trip id="westBottom___southRight_73" type="car" from="westBottom___intersectionSW" to="intersectionSE___southRight" depart="73" />    <trip id="northRight___eastBottom_77" type="car" from="northRight___intersectionNE" to="intersectionSE___eastBottom" depart="77" />    <trip id="southLeft___eastTop_77" type="car" from="southLeft___intersectionSW" to="intersectionNE___eastTop" depart="77" />    <trip id="northRight___southLeft_79" type="car" from="northRight___intersectionNE" to="intersectionSW___southLeft" depart="79" />    <trip id="eastTop___northRight_80" type="car" from="eastTop___intersectionNE" to="intersectionNE___northRight" depart="80" />    <trip id="eastTop___southLeft_82" type="car" from="eastTop___intersectionNE" to="intersectionSW___southLeft" depart="82" />    <trip id="northLeft___southRight_82" type="car" from="northLeft___intersectionNW" to="intersectionSE___southRight" depart="82" />    <trip id="southLeft___northLeft_82" type="car" from="southLeft___intersectionSW" to="intersectionNW___northLeft" depart="82" />    <trip id="eastTop___northRight_83" type="car" from="eastTop___intersectionNE" to="intersectionNE___northRight" depart="83" />    <trip id="eastBottom___southLeft_84" type="car" from="eastBottom___intersectionSE" to="intersectionSW___southLeft" depart="84" />    <trip id="westTop___eastBottom_87" type="car" from="westTop___intersectionNW" to="intersectionSE___eastBottom" depart="87" />    <trip id="westBottom___eastTop_90" type="car" from="westBottom___intersectionSW" to="intersectionNE___eastTop" depart="90" />    <trip id="northLeft___westBottom_101" type="car" from="northLeft___intersectionNW" to="intersectionSW___westBottom" depart="101" />    <trip id="southLeft___westBottom_114" type="car" from="southLeft___intersectionSW" to="intersectionSW___westBottom" depart="114" />    <trip id="southRight___westBottom_115" type="car" from="southRight___intersectionSE" to="intersectionSW___westBottom" depart="115" />    <trip id="westTop___southRight_122" type="car" from="westTop___intersectionNW" to="intersectionSE___southRight" depart="122" />    <trip id="westTop___westBottom_124" type="car" from="westTop___intersectionNW" to="intersectionSW___westBottom" depart="124" />    <trip id="southLeft___northRight_131" type="car" from="southLeft___intersectionSW" to="intersectionNE___northRight" depart="131" />    <trip id="southRight___eastBottom_132" type="car" from="southRight___intersectionSE" to="intersectionSE___eastBottom" depart="132" />    <trip id="southLeft___northRight_136" type="car" from="southLeft___intersectionSW" to="intersectionNE___northRight" depart="136" />    <trip id="westBottom___eastBottom_137" type="car" from="westBottom___intersectionSW" to="intersectionSE___eastBottom" depart="137" />    <trip id="westBottom___northLeft_139" type="car" from="westBottom___intersectionSW" to="intersectionNW___northLeft" depart="139" />    <trip id="eastBottom___southLeft_140" type="car" from="eastBottom___intersectionSE" to="intersectionSW___southLeft" depart="140" />    <trip id="northLeft___southLeft_140" type="car" from="northLeft___intersectionNW" to="intersectionSW___southLeft" depart="140" />    <trip id="westBottom___southLeft_142" type="car" from="westBottom___intersectionSW" to="intersectionSW___southLeft" depart="142" />    <trip id="westTop___northLeft_146" type="car" from="westTop___intersectionNW" to="intersectionNW___northLeft" depart="146" />    <trip id="northLeft___northRight_148" type="car" from="northLeft___intersectionNW" to="intersectionNE___northRight" depart="148" />    <trip id="eastBottom___westTop_149" type="car" from="eastBottom___intersectionSE" to="intersectionNW___westTop" depart="149" />    <trip id="westBottom___southRight_149" type="car" from="westBottom___intersectionSW" to="intersectionSE___southRight" depart="149" />    <trip id="westTop___southLeft_149" type="car" from="westTop___intersectionNW" to="intersectionSW___southLeft" depart="149" />    <trip id="northRight___eastBottom_150" type="car" from="northRight___intersectionNE" to="intersectionSE___eastBottom" depart="150" />    <trip id="eastTop___northRight_151" type="car" from="eastTop___intersectionNE" to="intersectionNE___northRight" depart="151" />    <trip id="northLeft___westBottom_151" type="car" from="northLeft___intersectionNW" to="intersectionSW___westBottom" depart="151" />    <trip id="northLeft___northRight_152" type="car" from="northLeft___intersectionNW" to="intersectionNE___northRight" depart="152" />    <trip id="westBottom___northLeft_156" type="car" from="westBottom___intersectionSW" to="intersectionNW___northLeft" depart="156" />    <trip id="northRight___westTop_157" type="car" from="northRight___intersectionNE" to="intersectionNW___westTop" depart="157" />    <trip id="eastTop___northRight_158" type="car" from="eastTop___intersectionNE" to="intersectionNE___northRight" depart="158" />    <trip id="westBottom___southRight_160" type="car" from="westBottom___intersectionSW" to="intersectionSE___southRight" depart="160" />    <trip id="eastTop___northLeft_162" type="car" from="eastTop___intersectionNE" to="intersectionNW___northLeft" depart="162" />    <trip id="eastTop___westBottom_167" type="car" from="eastTop___intersectionNE" to="intersectionSW___westBottom" depart="167" />    <trip id="northLeft___eastTop_167" type="car" from="northLeft___intersectionNW" to="intersectionNE___eastTop" depart="167" />    <trip id="northLeft___northRight_168" type="car" from="northLeft___intersectionNW" to="intersectionNE___northRight" depart="168" />    <trip id="westBottom___eastTop_168" type="car" from="westBottom___intersectionSW" to="intersectionNE___eastTop" depart="168" />    <trip id="southRight___northRight_171" type="car" from="southRight___intersectionSE" to="intersectionNE___northRight" depart="171" />    <trip id="westBottom___northLeft_172" type="car" from="westBottom___intersectionSW" to="intersectionNW___northLeft" depart="172" />    <trip id="eastBottom___southLeft_184" type="car" from="eastBottom___intersectionSE" to="intersectionSW___southLeft" depart="184" />    <trip id="westTop___westBottom_184" type="car" from="westTop___intersectionNW" to="intersectionSW___westBottom" depart="184" />    <trip id="southRight___southLeft_187" type="car" from="southRight___intersectionSE" to="intersectionSW___southLeft" depart="187" />    <trip id="eastBottom___northRight_189" type="car" from="eastBottom___intersectionSE" to="intersectionNE___northRight" depart="189" />    <trip id="eastTop___westBottom_196" type="car" from="eastTop___intersectionNE" to="intersectionSW___westBottom" depart="196" />    <trip id="eastBottom___northLeft_197" type="car" from="eastBottom___intersectionSE" to="intersectionNW___northLeft" depart="197" />    <trip id="eastTop___eastBottom_199" type="car" from="eastTop___intersectionNE" to="intersectionSE___eastBottom" depart="199" />    <trip id="northLeft___eastBottom_199" type="car" from="northLeft___intersectionNW" to="intersectionSE___eastBottom" depart="199" />    <trip id="eastBottom___northRight_203" type="car" from="eastBottom___intersectionSE" to="intersectionNE___northRight" depart="203" />    <trip id="northRight___westBottom_203" type="car" from="northRight___intersectionNE" to="intersectionSW___westBottom" depart="203" />    <trip id="westTop___eastBottom_207" type="car" from="westTop___intersectionNW" to="intersectionSE___eastBottom" depart="207" />    <trip id="eastTop___northLeft_208" type="car" from="eastTop___intersectionNE" to="intersectionNW___northLeft" depart="208" />    <trip id="eastTop___eastBottom_209" type="car" from="eastTop___intersectionNE" to="intersectionSE___eastBottom" depart="209" />    <trip id="eastTop___southRight_214" type="car" from="eastTop___intersectionNE" to="intersectionSE___southRight" depart="214" />    <trip id="northLeft___eastBottom_216" type="car" from="northLeft___intersectionNW" to="intersectionSE___eastBottom" depart="216" />    <trip id="southLeft___westTop_216" type="car" from="southLeft___intersectionSW" to="intersectionNW___westTop" depart="216" />    <trip id="westBottom___northRight_216" type="car" from="westBottom___intersectionSW" to="intersectionNE___northRight" depart="216" />    <trip id="northRight___northLeft_221" type="car" from="northRight___intersectionNE" to="intersectionNW___northLeft" depart="221" />    <trip id="westBottom___northRight_221" type="car" from="westBottom___intersectionSW" to="intersectionNE___northRight" depart="221" />    <trip id="westTop___eastTop_233" type="car" from="westTop___intersectionNW" to="intersectionNE___eastTop" depart="233" />    <trip id="northLeft___northRight_235" type="car" from="northLeft___intersectionNW" to="intersectionNE___northRight" depart="235" />    <trip id="southLeft___northRight_235" type="car" from="southLeft___intersectionSW" to="intersectionNE___northRight" depart="235" />    <trip id="eastBottom___westBottom_236" type="car" from="eastBottom___intersectionSE" to="intersectionSW___westBottom" depart="236" />    <trip id="eastTop___northRight_238" type="car" from="eastTop___intersectionNE" to="intersectionNE___northRight" depart="238" />    <trip id="westBottom___westTop_239" type="car" from="westBottom___intersectionSW" to="intersectionNW___westTop" depart="239" />    <trip id="eastTop___southRight_241" type="car" from="eastTop___intersectionNE" to="intersectionSE___southRight" depart="241" />    <trip id="eastBottom___westTop_242" type="car" from="eastBottom___intersectionSE" to="intersectionNW___westTop" depart="242" />    <trip id="northLeft___westBottom_243" type="car" from="northLeft___intersectionNW" to="intersectionSW___westBottom" depart="243" />    <trip id="eastTop___northLeft_244" type="car" from="eastTop___intersectionNE" to="intersectionNW___northLeft" depart="244" />    <trip id="southLeft___northLeft_248" type="car" from="southLeft___intersectionSW" to="intersectionNW___northLeft" depart="248" />    <trip id="westBottom___southLeft_249" type="car" from="westBottom___intersectionSW" to="intersectionSW___southLeft" depart="249" />    <trip id="southRight___southLeft_252" type="car" from="southRight___intersectionSE" to="intersectionSW___southLeft" depart="252" />    <trip id="westBottom___northRight_255" type="car" from="westBottom___intersectionSW" to="intersectionNE___northRight" depart="255" />    <trip id="northLeft___westTop_258" type="car" from="northLeft___intersectionNW" to="intersectionNW___westTop" depart="258" />    <trip id="southLeft___southRight_270" type="car" from="southLeft___intersectionSW" to="intersectionSE___southRight" depart="270" />    <trip id="northRight___southRight_271" type="car" from="northRight___intersectionNE" to="intersectionSE___southRight" depart="271" />    <trip id="northLeft___northRight_273" type="car" from="northLeft___intersectionNW" to="intersectionNE___northRight" depart="273" />    <trip id="eastBottom___northLeft_274" type="car" from="eastBottom___intersectionSE" to="intersectionNW___northLeft" depart="274" />    <trip id="northRight___westTop_275" type="car" from="northRight___intersectionNE" to="intersectionNW___westTop" depart="275" />    <trip id="northRight___westBottom_276" type="car" from="northRight___intersectionNE" to="intersectionSW___westBottom" depart="276" />    <trip id="westTop___southLeft_278" type="car" from="westTop___intersectionNW" to="intersectionSW___southLeft" depart="278" />    <trip id="northLeft___northRight_279" type="car" from="northLeft___intersectionNW" to="intersectionNE___northRight" depart="279" />    <trip id="southRight___westTop_279" type="car" from="southRight___intersectionSE" to="intersectionNW___westTop" depart="279" />    <trip id="eastBottom___eastTop_281" type="car" from="eastBottom___intersectionSE" to="intersectionNE___eastTop" depart="281" />    <trip id="northRight___southRight_282" type="car" from="northRight___intersectionNE" to="intersectionSE___southRight" depart="282" />    <trip id="westTop___northLeft_283" type="car" from="westTop___intersectionNW" to="intersectionNW___northLeft" depart="283" />    <trip id="eastBottom___southLeft_284" type="car" from="eastBottom___intersectionSE" to="intersectionSW___southLeft" depart="284" />    <trip id="northRight___eastBottom_289" type="car" from="northRight___intersectionNE" to="intersectionSE___eastBottom" depart="289" />    <trip id="southRight___eastTop_290" type="car" from="southRight___intersectionSE" to="intersectionNE___eastTop" depart="290" />    <trip id="westTop___westBottom_293" type="car" from="westTop___intersectionNW" to="intersectionSW___westBottom" depart="293" />    <trip id="westTop___southRight_294" type="car" from="westTop___intersectionNW" to="intersectionSE___southRight" depart="294" />    <trip id="southRight___northRight_295" type="car" from="southRight___intersectionSE" to="intersectionNE___northRight" depart="295" />    <trip id="eastTop___westBottom_298" type="car" from="eastTop___intersectionNE" to="intersectionSW___westBottom" depart="298" />    <trip id="southLeft___westBottom_301" type="car" from="southLeft___intersectionSW" to="intersectionSW___westBottom" depart="301" />    <trip id="southLeft___southRight_302" type="car" from="southLeft___intersectionSW" to="intersectionSE___southRight" depart="302" />    <trip id="northLeft___eastBottom_303" type="car" from="northLeft___intersectionNW" to="intersectionSE___eastBottom" depart="303" />    <trip id="northRight___eastBottom_307" type="car" from="northRight___intersectionNE" to="intersectionSE___eastBottom" depart="307" />    <trip id="southLeft___northRight_307" type="car" from="southLeft___intersectionSW" to="intersectionNE___northRight" depart="307" />    <trip id="northLeft___westTop_309" type="car" from="northLeft___intersectionNW" to="intersectionNW___westTop" depart="309" />    <trip id="westTop___eastTop_310" type="car" from="westTop___intersectionNW" to="intersectionNE___eastTop" depart="310" />    <trip id="westBottom___eastTop_312" type="car" from="westBottom___intersectionSW" to="intersectionNE___eastTop" depart="312" />    <trip id="westTop___northLeft_314" type="car" from="westTop___intersectionNW" to="intersectionNW___northLeft" depart="314" />    <trip id="westBottom___southLeft_316" type="car" from="westBottom___intersectionSW" to="intersectionSW___southLeft" depart="316" />    <trip id="northLeft___westBottom_317" type="car" from="northLeft___intersectionNW" to="intersectionSW___westBottom" depart="317" />    <trip id="westTop___southLeft_318" type="car" from="westTop___intersectionNW" to="intersectionSW___southLeft" depart="318" />    <trip id="westTop___eastTop_321" type="car" from="westTop___intersectionNW" to="intersectionNE___eastTop" depart="321" />    <trip id="southRight___northRight_322" type="car" from="southRight___intersectionSE" to="intersectionNE___northRight" depart="322" />    <trip id="southRight___westTop_323" type="car" from="southRight___intersectionSE" to="intersectionNW___westTop" depart="323" />    <trip id="southLeft___westBottom_325" type="car" from="southLeft___intersectionSW" to="intersectionSW___westBottom" depart="325" />    <trip id="westBottom___eastBottom_327" type="car" from="westBottom___intersectionSW" to="intersectionSE___eastBottom" depart="327" />    <trip id="southRight___westTop_328" type="car" from="southRight___intersectionSE" to="intersectionNW___westTop" depart="328" />    <trip id="westTop___northRight_331" type="car" from="westTop___intersectionNW" to="intersectionNE___northRight" depart="331" />    <trip id="northLeft___eastTop_334" type="car" from="northLeft___intersectionNW" to="intersectionNE___eastTop" depart="334" />    <trip id="southLeft___westBottom_335" type="car" from="southLeft___intersectionSW" to="intersectionSW___westBottom" depart="335" />    <trip id="southRight___northLeft_335" type="car" from="southRight___intersectionSE" to="intersectionNW___northLeft" depart="335" />    <trip id="eastTop___southLeft_336" type="car" from="eastTop___intersectionNE" to="intersectionSW___southLeft" depart="336" />    <trip id="westBottom___eastBottom_336" type="car" from="westBottom___intersectionSW" to="intersectionSE___eastBottom" depart="336" />    <trip id="eastTop___northLeft_338" type="car" from="eastTop___intersectionNE" to="intersectionNW___northLeft" depart="338" />    <trip id="westBottom___eastBottom_338" type="car" from="westBottom___intersectionSW" to="intersectionSE___eastBottom" depart="338" />    <trip id="northLeft___northRight_341" type="car" from="northLeft___intersectionNW" to="intersectionNE___northRight" depart="341" />    <trip id="northLeft___eastTop_343" type="car" from="northLeft___intersectionNW" to="intersectionNE___eastTop" depart="343" />    <trip id="northRight___eastTop_346" type="car" from="northRight___intersectionNE" to="intersectionNE___eastTop" depart="346" />    <trip id="southRight___northRight_346" type="car" from="southRight___intersectionSE" to="intersectionNE___northRight" depart="346" />    <trip id="westTop___eastBottom_346" type="car" from="westTop___intersectionNW" to="intersectionSE___eastBottom" depart="346" />    <trip id="westTop___northRight_347" type="car" from="westTop___intersectionNW" to="intersectionNE___northRight" depart="347" />    <trip id="northRight___northLeft_351" type="car" from="northRight___intersectionNE" to="intersectionNW___northLeft" depart="351" />    <trip id="northLeft___westBottom_360" type="car" from="northLeft___intersectionNW" to="intersectionSW___westBottom" depart="360" />    <trip id="westBottom___eastBottom_361" type="car" from="westBottom___intersectionSW" to="intersectionSE___eastBottom" depart="361" />    <trip id="westTop___southRight_364" type="car" from="westTop___intersectionNW" to="intersectionSE___southRight" depart="364" />    <trip id="eastBottom___westBottom_369" type="car" from="eastBottom___intersectionSE" to="intersectionSW___westBottom" depart="369" />    <trip id="westTop___eastBottom_375" type="car" from="westTop___intersectionNW" to="intersectionSE___eastBottom" depart="375" />    <trip id="eastBottom___eastTop_376" type="car" from="eastBottom___intersectionSE" to="intersectionNE___eastTop" depart="376" />    <trip id="northRight___southLeft_379" type="car" from="northRight___intersectionNE" to="intersectionSW___southLeft" depart="379" />    <trip id="southRight___westTop_379" type="car" from="southRight___intersectionSE" to="intersectionNW___westTop" depart="379" />    <trip id="westBottom___eastBottom_379" type="car" from="westBottom___intersectionSW" to="intersectionSE___eastBottom" depart="379" />    <trip id="eastBottom___eastTop_382" type="car" from="eastBottom___intersectionSE" to="intersectionNE___eastTop" depart="382" />    <trip id="northRight___southLeft_383" type="car" from="northRight___intersectionNE" to="intersectionSW___southLeft" depart="383" />    <trip id="westTop___southRight_384" type="car" from="westTop___intersectionNW" to="intersectionSE___southRight" depart="384" />    <trip id="westTop___southRight_390" type="car" from="westTop___intersectionNW" to="intersectionSE___southRight" depart="390" />    <trip id="westBottom___northLeft_392" type="car" from="westBottom___intersectionSW" to="intersectionNW___northLeft" depart="392" />    <trip id="northRight___eastTop_395" type="car" from="northRight___intersectionNE" to="intersectionNE___eastTop" depart="395" />    <trip id="northRight___eastTop_399" type="car" from="northRight___intersectionNE" to="intersectionNE___eastTop" depart="399" />    <trip id="eastTop___southRight_401" type="car" from="eastTop___intersectionNE" to="intersectionSE___southRight" depart="401" />    <trip id="northLeft___northRight_401" type="car" from="northLeft___intersectionNW" to="intersectionNE___northRight" depart="401" />    <trip id="southRight___southLeft_403" type="car" from="southRight___intersectionSE" to="intersectionSW___southLeft" depart="403" />    <trip id="northLeft___westBottom_407" type="car" from="northLeft___intersectionNW" to="intersectionSW___westBottom" depart="407" />    <trip id="northRight___northLeft_408" type="car" from="northRight___intersectionNE" to="intersectionNW___northLeft" depart="408" />    <trip id="eastTop___southLeft_409" type="car" from="eastTop___intersectionNE" to="intersectionSW___southLeft" depart="409" />    <trip id="northLeft___southLeft_410" type="car" from="northLeft___intersectionNW" to="intersectionSW___southLeft" depart="410" />    <trip id="southRight___northLeft_411" type="car" from="southRight___intersectionSE" to="intersectionNW___northLeft" depart="411" />    <trip id="eastTop___southRight_412" type="car" from="eastTop___intersectionNE" to="intersectionSE___southRight" depart="412" />    <trip id="northLeft___southLeft_412" type="car" from="northLeft___intersectionNW" to="intersectionSW___southLeft" depart="412" />    <trip id="westBottom___eastBottom_413" type="car" from="westBottom___intersectionSW" to="intersectionSE___eastBottom" depart="413" />    <trip id="eastBottom___southLeft_420" type="car" from="eastBottom___intersectionSE" to="intersectionSW___southLeft" depart="420" />    <trip id="westBottom___westTop_421" type="car" from="westBottom___intersectionSW" to="intersectionNW___westTop" depart="421" />    <trip id="northRight___westBottom_424" type="car" from="northRight___intersectionNE" to="intersectionSW___westBottom" depart="424" />    <trip id="northRight___northLeft_427" type="car" from="northRight___intersectionNE" to="intersectionNW___northLeft" depart="427" />    <trip id="southLeft___eastBottom_429" type="car" from="southLeft___intersectionSW" to="intersectionSE___eastBottom" depart="429" />    <trip id="northRight___southLeft_433" type="car" from="northRight___intersectionNE" to="intersectionSW___southLeft" depart="433" />    <trip id="westBottom___westTop_433" type="car" from="westBottom___intersectionSW" to="intersectionNW___westTop" depart="433" />    <trip id="northLeft___westBottom_434" type="car" from="northLeft___intersectionNW" to="intersectionSW___westBottom" depart="434" />    <trip id="southRight___eastBottom_435" type="car" from="southRight___intersectionSE" to="intersectionSE___eastBottom" depart="435" />    <trip id="southRight___eastTop_437" type="car" from="southRight___intersectionSE" to="intersectionNE___eastTop" depart="437" />    <trip id="eastTop___westTop_438" type="car" from="eastTop___intersectionNE" to="intersectionNW___westTop" depart="438" />    <trip id="southRight___westTop_438" type="car" from="southRight___intersectionSE" to="intersectionNW___westTop" depart="438" />    <trip id="westBottom___westTop_441" type="car" from="westBottom___intersectionSW" to="intersectionNW___westTop" depart="441" />    <trip id="southLeft___westBottom_449" type="car" from="southLeft___intersectionSW" to="intersectionSW___westBottom" depart="449" />    <trip id="southLeft___northLeft_450" type="car" from="southLeft___intersectionSW" to="intersectionNW___northLeft" depart="450" />    <trip id="westTop___southRight_450" type="car" from="westTop___intersectionNW" to="intersectionSE___southRight" depart="450" />    <trip id="northLeft___southLeft_454" type="car" from="northLeft___intersectionNW" to="intersectionSW___southLeft" depart="454" />    <trip id="northRight___northLeft_454" type="car" from="northRight___intersectionNE" to="intersectionNW___northLeft" depart="454" />    <trip id="westTop___northRight_455" type="car" from="westTop___intersectionNW" to="intersectionNE___northRight" depart="455" />    <trip id="southLeft___southRight_456" type="car" from="southLeft___intersectionSW" to="intersectionSE___southRight" depart="456" />    <trip id="eastBottom___southLeft_457" type="car" from="eastBottom___intersectionSE" to="intersectionSW___southLeft" depart="457" />    <trip id="westBottom___eastTop_461" type="car" from="westBottom___intersectionSW" to="intersectionNE___eastTop" depart="461" />    <trip id="southLeft___northRight_463" type="car" from="southLeft___intersectionSW" to="intersectionNE___northRight" depart="463" />    <trip id="eastBottom___southRight_465" type="car" from="eastBottom___intersectionSE" to="intersectionSE___southRight" depart="465" />    <trip id="southLeft___northRight_468" type="car" from="southLeft___intersectionSW" to="intersectionNE___northRight" depart="468" />    <trip id="westBottom___northRight_468" type="car" from="westBottom___intersectionSW" to="intersectionNE___northRight" depart="468" />    <trip id="eastBottom___eastTop_470" type="car" from="eastBottom___intersectionSE" to="intersectionNE___eastTop" depart="470" />    <trip id="northRight___eastBottom_471" type="car" from="northRight___intersectionNE" to="intersectionSE___eastBottom" depart="471" />    <trip id="northRight___southRight_472" type="car" from="northRight___intersectionNE" to="intersectionSE___southRight" depart="472" />    <trip id="northLeft_