
        <routes>
            <vType id="car" accel="0.8" decel="4.5" sigma="0.5" length="5" minGap="2.5" maxSpeed="15" guiShape="passenger"/>
            <trip id="eastTop___southRight_0" type="car" from="eastTop___intersectionNE" to="intersectionSE___southRight" depart="0" />    <trip id="northLeft___southLeft_4" type="car" from="northLeft___intersectionNW" to="intersectionSW___southLeft" depart="4" />    <trip id="westBottom___southLeft_5" type="car" from="westBottom___intersectionSW" to="intersectionSW___southLeft" depart="5" />    <trip id="westTop___eastTop_5" type="car" from="westTop___intersectionNW" to="intersectionNE___eastTop" depart="5" />    <trip id="northLeft___eastBottom_6" type="car" from="northLeft___intersectionNW" to="intersectionSE___eastBottom" depart="6" />    <trip id="southLeft___southRight_9" type="car" from="southLeft___intersectionSW" to="intersectionSE___southRight" depart="9" />    <trip id="northRight___eastBottom_10" type="car" from="northRight___intersectionNE" to="intersectionSE___eastBottom" depart="10" />    <trip id="westBottom___eastBottom_12" type="car" from="westBottom___intersectionSW" to="intersectionSE___eastBottom" depart="12" />    <trip id="northLeft___westTop_18" type="car" from="northLeft___intersectionNW" to="intersectionNW___westTop" depart="18" />    <trip id="westTop___westBottom_19" type="car" from="westTop___intersectionNW" to="intersectionSW___westBottom" depart="19" />    <trip id="eastTop___northLeft_24" type="car" from="eastTop___intersectionNE" to="intersectionNW___northLeft" depart="24" />    <trip id="northRight___westBottom_30" type="car" from="northRight___intersectionNE" to="intersectionSW___westBottom" depart="30" />    <trip id="eastTop___southRight_31" type="car" from="eastTop___intersectionNE" to="intersectionSE___southRight" depart="31" />    <trip id="eastTop___southLeft_32" type="car" from="eastTop___intersectionNE" to="intersectionSW___southLeft" depart="32" />    <trip id="northLeft___eastTop_35" type="car" from="northLeft___intersectionNW" to="intersectionNE___eastTop" depart="35" />    <trip id="eastBottom___southRight_39" type="car" from="eastBottom___intersectionSE" to="intersectionSE___southRight" depart="39" />    <trip id="southLeft___southRight_39" type="car" from="southLeft___intersectionSW" to="intersectionSE___southRight" depart="39" />    <trip id="southRight___southLeft_41" type="car" from="southRight___intersectionSE" to="intersectionSW___southLeft" depart="41" />    <trip id="northRight___southRight_42" type="car" from="northRight___intersectionNE" to="intersectionSE___southRight" depart="42" />    <trip id="southRight___westTop_45" type="car" from="southRight___intersectionSE" to="intersectionNW___westTop" depart="45" />    <trip id="westTop___eastBottom_45" type="car" from="westTop___intersectionNW" to="intersectionSE___eastBottom" depart="45" />    <trip id="southRight___northLeft_54" type="car" from="southRight___intersectionSE" to="intersectionNW___northLeft" depart="54" />    <trip id="eastBottom___westTop_57" type="car" from="eastBottom___intersectionSE" to="intersectionNW___westTop" depart="57" />    <trip id="westTop___southLeft_58" type="car" from="westTop___intersectionNW" to="intersectionSW___southLeft" depart="58" />    <trip id="westTop___northRight_59" type="car" from="westTop___intersectionNW" to="intersectionNE___northRight" depart="59" />    <trip id="eastBottom___westBottom_66" type="car" from="eastBottom___intersectionSE" to="intersectionSW___westBottom" depart="66" />    <trip id="eastTop___westTop_67" type="car" from="eastTop___intersectionNE" to="intersectionNW___westTop" depart="67" />    <trip id="westBottom___northLeft_68" type="car" from="westBottom___intersectionSW" to="intersectionNW___northLeft" depart="68" />    <trip id="westTop___southLeft_69" type="car" from="westTop___intersectionNW" to="intersectionSW___southLeft" depart="69" />    <trip id="northLeft___eastBottom_70" type="car" from="northLeft___intersectionNW" to="intersectionSE___eastBottom" depart="70" />    <trip id="southRight___eastBottom_72" type="car" from="southRight___intersectionSE" to="intersectionSE___eastBottom" depart="72" />    <trip id="southRight___northLeft_74" type="car" from="southRight___intersectionSE" to="intersectionNW___northLeft" depart="74" />    <trip id="westBottom___southLeft_78" type="car" from="westBottom___intersectionSW" to="intersectionSW___southLeft" depart="78" />    <trip id="westBottom___westTop_82" type="car" from="westBottom___intersectionSW" to="intersectionNW___westTop" depart="82" />    <trip id="eastTop___eastBottom_84" type="car" from="eastTop___intersectionNE" to="intersectionSE___eastBottom" depart="84" />    <trip id="southLeft___eastTop_90" type="car" from="southLeft___intersectionSW" to="intersectionNE___eastTop" depart="90" />    <trip id="southLeft___southRight_94" type="car" from="southLeft___intersectionSW" to="intersectionSE___southRight" depart="94" />    <trip id="southLeft___northRight_98" type="car" from="southLeft___intersectionSW" to="intersectionNE___northRight" depart="98" />    <trip id="southRight___eastBottom_104" type="car" from="southRight___intersectionSE" to="intersectionSE___eastBottom" depart="104" />    <trip id="northRight___westTop_106" type="car" from="northRight___intersectionNE" to="intersectionNW___westTop" depart="106" />    <trip id="southLeft___southRight_109" type="car" from="southLeft___intersectionSW" to="intersectionSE___southRight" depart="109" />    <trip id="northRight___eastBottom_110" type="car" from="northRight___intersectionNE" to="intersectionSE___eastBottom" depart="110" />    <trip id="northLeft___westBottom_116" type="car" from="northLeft___intersectionNW" to="intersectionSW___westBottom" depart="116" />    <trip id="southRight___eastTop_117" type="car" from="southRight___intersectionSE" to="intersectionNE___eastTop" depart="117" />    <trip id="northLeft___westTop_118" type="car" from="northLeft___intersectionNW" to="intersectionNW___westTop" depart="118" />    <trip id="westTop___southRight_118" type="car" from="westTop___intersectionNW" to="intersectionSE___southRight" depart="118" />    <trip id="northLeft___northRight_120" type="car" from="northLeft___intersectionNW" to="intersectionNE___northRight" depart="120" />    <trip id="westTop___eastTop_122" type="car" from="westTop___intersectionNW" to="intersectionNE___eastTop" depart="122" />    <trip id="northLeft___eastTop_126" type="car" from="northLeft___intersectionNW" to="intersectionNE___eastTop" depart="126" />    <trip id="northLeft___southRight_128" type="car" from="northLeft___intersectionNW" to="intersectionSE___southRight" depart="128" />    <trip id="northRight___northLeft_130" type="car" from="northRight___intersectionNE" to="intersectionNW___northLeft" depart="130" />    <trip id="westBottom___southRight_130" type="car" from="westBottom___intersectionSW" to="intersectionSE___southRight" depart="130" />    <trip id="eastBottom___westTop_135" type="car" from="eastBottom___intersectionSE" to="intersectionNW___westTop" depart="135" />    <trip id="northRight___eastTop_136" type="car" from="northRight___intersectionNE" to="intersectionNE___eastTop" depart="136" />    <trip id="northLeft___eastBottom_139" type="car" from="northLeft___intersectionNW" to="intersectionSE___eastBottom" depart="139" />    <trip id="southRight___northLeft_140" type="car" from="southRight___intersectionSE" to="intersectionNW___northLeft" depart="140" />    <trip id="eastTop___northLeft_141" type="car" from="eastTop___intersectionNE" to="intersectionNW___northLeft" depart="141" />    <trip id="westBottom___northLeft_144" type="car" from="westBottom___intersectionSW" to="intersectionNW___northLeft" depart="144" />    <trip id="westBottom___northLeft_149" type="car" from="westBottom___intersectionSW" to="intersectionNW___northLeft" depart="149" />    <trip id="southRight___eastTop_155" type="car" from="southRight___intersectionSE" to="intersectionNE___eastTop" depart="155" />    <trip id="northLeft___eastBottom_158" type="car" from="northLeft___intersectionNW" to="intersectionSE___eastBottom" depart="158" />    <trip id="westTop___southLeft_159" type="car" from="westTop___intersectionNW" to="intersectionSW___southLeft" depart="159" />    <trip id="eastBottom___southRight_162" type="car" from="eastBottom___intersectionSE" to="intersectionSE___southRight" depart="162" />    <trip id="southRight___westBottom_165" type="car" from="southRight___intersectionSE" to="intersectionSW___westBottom" depart="165" />    <trip id="eastTop___westBottom_166" type="car" from="eastTop___intersectionNE" to="intersectionSW___westBottom" depart="166" />    <trip id="northRight___northLeft_169" type="car" from="northRight___intersectionNE" to="intersectionNW___northLeft" depart="169" />    <trip id="eastBottom___westTop_180" type="car" from="eastBottom___intersectionSE" to="intersectionNW___westTop" depart="180" />    <trip id="eastBottom___southLeft_181" type="car" from="eastBottom___intersectionSE" to="intersectionSW___southLeft" depart="181" />    <trip id="northLeft___eastBottom_182" type="car" from="northLeft___intersectionNW" to="intersectionSE___eastBottom" depart="182" />    <trip id="eastTop___southRight_183" type="car" from="eastTop___intersectionNE" to="intersectionSE___southRight" depart="183" />    <trip id="eastTop___southRight_187" type="car" from="eastTop___intersectionNE" to="intersectionSE___southRight" depart="187" />    <trip id="southRight___southLeft_188" type="car" from="southRight___intersectionSE" to="intersectionSW___southLeft" depart="188" />    <trip id="southLeft___northRight_189" type="car" from="southLeft___intersectionSW" to="intersectionNE___northRight" depart="189" />    <trip id="westTop___southLeft_191" type="car" from="westTop___intersectionNW" to="intersectionSW___southLeft" depart="191" />    <trip id="southRight___southLeft_197" type="car" from="southRight___intersectionSE" to="intersectionSW___southLeft" depart="197" />    <trip id="westTop___northLeft_199" type="car" from="westTop___intersectionNW" to="intersectionNW___northLeft" depart="199" />    <trip id="northLeft___southLeft_203" type="car" from="northLeft___intersectionNW" to="intersectionSW___southLeft" depart="203" />    <trip id="westBottom___southLeft_204" type="car" from="westBottom___intersectionSW" to="intersectionSW___southLeft" depart="204" />    <trip id="southLeft___southRight_211" type="car" from="southLeft___intersectionSW" to="intersectionSE___southRight" depart="211" />    <trip id="eastTop___southLeft_214" type="car" from="eastTop___intersectionNE" to="intersectionSW___southLeft" depart="214" />    <trip id="westBottom___westTop_214" type="car" from="westBottom___intersectionSW" to="intersectionNW___westTop" depart="214" />    <trip id="eastBottom___westTop_215" type="car" from="eastBottom___intersectionSE" to="intersectionNW___westTop" depart="215" />    <trip id="northLeft___northRight_215" type="car" from="northLeft___intersectionNW" to="intersectionNE___northRight" depart="215" />    <trip id="westBottom___northRight_215" type="car" from="westBottom___intersectionSW" to="intersectionNE___northRight" depart="215" />    <trip id="eastBottom___northRight_218" type="car" from="eastBottom___intersectionSE" to="intersectionNE___northRight" depart="218" />    <trip id="southRight___eastTop_220" type="car" from="southRight___intersectionSE" to="intersectionNE___eastTop" depart="220" />    <trip id="westTop___southLeft_220" type="car" from="westTop___intersectionNW" to="intersectionSW___southLeft" depart="220" />    <trip id="southRight___westTop_222" type="car" from="southRight___intersectionSE" to="intersectionNW___westTop" depart="222" />    <trip id="westTop___northRight_223" type="car" from="westTop___intersectionNW" to="intersectionNE___northRight" depart="223" />    <trip id="westTop___northRight_225" type="car" from="westTop___intersectionNW" to="intersectionNE___northRight" depart="225" />    <trip id="southLeft___westTop_226" type="car" from="southLeft___intersectionSW" to="intersectionNW___westTop" depart="226" />    <trip id="eastBottom___eastTop_228" type="car" from="eastBottom___intersectionSE" to="intersectionNE___eastTop" depart="228" />    <trip id="eastTop___westBottom_228" type="car" from="eastTop___intersectionNE" to="intersectionSW___westBottom" depart="228" />    <trip id="southRight___southLeft_229" type="car" from="southRight___intersectionSE" to="intersectionSW___southLeft" depart="229" />    <trip id="eastBottom___westTop_232" type="car" from="eastBottom___intersectionSE" to="intersectionNW___westTop" depart="232" />    <trip id="eastBottom___westTop_234" type="car" from="eastBottom___intersectionSE" to="intersectionNW___westTop" depart="234" />    <trip id="eastTop___southLeft_239" type="car" from="eastTop___intersectionNE" to="intersectionSW___southLeft" depart="239" />    <trip id="southRight___southLeft_240" type="car" from="southRight___intersectionSE" to="intersectionSW___southLeft" depart="240" />    <trip id="eastBottom___southLeft_241" type="car" from="eastBottom___intersectionSE" to="intersectionSW___southLeft" depart="241" />    <trip id="eastBottom___westBottom_244" type="car" from="eastBottom___intersectionSE" to="intersectionSW___westBottom" depart="244" />    <trip id="northRight___southLeft_248" type="car" from="northRight___intersectionNE" to="intersectionSW___southLeft" depart="248" />    <trip id="northRight___southLeft_250" type="car" from="northRight___intersectionNE" to="intersectionSW___southLeft" depart="250" />    <trip id="southLeft___southRight_251" type="car" from="southLeft___intersectionSW" to="intersectionSE___southRight" depart="251" />    <trip id="northRight___eastBottom_252" type="car" from="northRight___intersectionNE" to="intersectionSE___eastBottom" depart="252" />    <trip id="westBottom___northLeft_261" type="car" from="westBottom___intersectionSW" to="intersectionNW___northLeft" depart="261" />    <trip id="westBottom___northRight_262" type="car" from="westBottom___intersectionSW" to="intersectionNE___northRight" depart="262" />    <trip id="southRight___southLeft_267" type="car" from="southRight___intersectionSE" to="intersectionSW___southLeft" depart="267" />    <trip id="northRight___eastTop_270" type="car" from="northRight___intersectionNE" to="intersectionNE___eastTop" depart="270" />    <trip id="westBottom___southLeft_270" type="car" from="westBottom___intersectionSW" to="intersectionSW___southLeft" depart="270" />    <trip id="northLeft___westTop_271" type="car" from="northLeft___intersectionNW" to="intersectionNW___westTop" depart="271" />    <trip id="eastBottom___westBottom_273" type="car" from="eastBottom___intersectionSE" to="intersectionSW___westBottom" depart="273" />    <trip id="westTop___northLeft_276" type="car" from="westTop___intersectionNW" to="intersectionNW___northLeft" depart="276" />    <trip id="southLeft___westTop_277" type="car" from="southLeft___intersectionSW" to="intersectionNW___westTop" depart="277" />    <trip id="westTop___southRight_278" type="car" from="westTop___intersectionNW" to="intersectionSE___southRight" depart="278" />    <trip id="eastBottom___northRight_279" type="car" from="eastBottom___intersectionSE" to="intersectionNE___northRight" depart="279" />    <trip id="eastTop___eastBottom_279" type="car" from="eastTop___intersectionNE" to="intersectionSE___eastBottom" depart="279" />    <trip id="northRight___westTop_280" type="car" from="northRight___intersectionNE" to="intersectionNW___westTop" depart="280" />    <trip id="southLeft___westTop_282" type="car" from="southLeft___intersectionSW" to="intersectionNW___westTop" depart="282" />    <trip id="eastBottom___northLeft_283" type="car" from="eastBottom___intersectionSE" to="intersectionNW___northLeft" depart="283" />    <trip id="eastTop___southRight_284" type="car" from="eastTop___intersectionNE" to="intersectionSE___southRight" depart="284" />    <trip id="northLeft___southRight_286" type="car" from="northLeft___intersectionNW" to="intersectionSE___southRight" depart="286" />    <trip id="eastTop___southLeft_288" type="car" from="eastTop___intersectionNE" to="intersectionSW___southLeft" depart="288" />    <trip id="eastTop___northRight_289" type="car" from="eastTop___intersectionNE" to="intersectionNE___northRight" depart="289" />    <trip id="northRight___eastTop_289" type="car" from="northRight___intersectionNE" to="intersectionNE___eastTop" depart="289" />    <trip id="southLeft___eastBottom_295" type="car" from="southLeft___intersectionSW" to="intersectionSE___eastBottom" depart="295" />    <trip id="eastBottom___northRight_300" type="car" from="eastBottom___intersectionSE" to="intersectionNE___northRight" depart="300" />    <trip id="northRight___westBottom_300" type="car" from="northRight___intersectionNE" to="intersectionSW___westBottom" depart="300" />    <trip id="southLeft___westTop_306" type="car" from="southLeft___intersectionSW" to="intersectionNW___westTop" depart="306" />    <trip id="northLeft___eastBottom_307" type="car" from="northLeft___intersectionNW" to="intersectionSE___eastBottom" depart="307" />    <trip id="southRight___westBottom_307" type="car" from="southRight___intersectionSE" to="intersectionSW___westBottom" depart="307" />    <trip id="westBottom___eastBottom_308" type="car" from="westBottom___intersectionSW" to="intersectionSE___eastBottom" depart="308" />    <trip id="eastTop___westTop_309" type="car" from="eastTop___intersectionNE" to="intersectionNW___westTop" depart="309" />    <trip id="eastTop___northLeft_311" type="car" from="eastTop___intersectionNE" to="intersectionNW___northLeft" depart="311" />    <trip id="southLeft___westBottom_312" type="car" from="southLeft___intersectionSW" to="intersectionSW___westBottom" depart="312" />    <trip id="northLeft___southRight_316" type="car" from="northLeft___intersectionNW" to="intersectionSE___southRight" depart="316" />    <trip id="westTop___northLeft_321" type="car" from="westTop___intersectionNW" to="intersectionNW___northLeft" depart="321" />    <trip id="eastTop___northLeft_325" type="car" from="eastTop___intersectionNE" to="intersectionNW___northLeft" depart="325" />    <trip id="westBottom___northRight_325" type="car" from="westBottom___intersectionSW" to="intersectionNE___northRight" depart="325" />    <trip id="eastBottom___northRight_329" type="car" from="eastBottom___intersectionSE" to="intersectionNE___northRight" depart="329" />    <trip id="southLeft___eastTop_329" type="car" from="southLeft___intersectionSW" to="intersectionNE___eastTop" depart="329" />    <trip id="westTop___eastTop_329" type="car" from="westTop___intersectionNW" to="intersectionNE___eastTop" depart="329" />    <trip id="westTop___southLeft_330" type="car" from="westTop___intersectionNW" to="intersectionSW___southLeft" depart="330" />    <trip id="northLeft___southRight_331" type="car" from="northLeft___intersectionNW" to="intersectionSE___southRight" depart="331" />    <trip id="northRight___southRight_331" type="car" from="northRight___intersectionNE" to="intersectionSE___southRight" depart="331" />    <trip id="eastTop___westTop_332" type="car" from="eastTop___intersectionNE" to="intersectionNW___westTop" depart="332" />    <trip id="westTop___northLeft_333" type="car" from="westTop___intersectionNW" to="intersectionNW___northLeft" depart="333" />    <trip id="eastTop___westBottom_334" type="car" from="eastTop___intersectionNE" to="intersectionSW___westBottom" depart="334" />    <trip id="eastTop___southLeft_338" type="car" from="eastTop___intersectionNE" to="intersectionSW___southLeft" depart="338" />    <trip id="northRight___westTop_338" type="car" from="northRight___intersectionNE" to="intersectionNW___westTop" depart="338" />    <trip id="westBottom___westTop_342" type="car" from="westBottom___intersectionSW" to="intersectionNW___westTop" depart="342" />    <trip id="eastTop___southRight_349" type="car" from="eastTop___intersectionNE" to="intersectionSE___southRight" depart="349" />    <trip id="southRight___westBottom_349" type="car" from="southRight___intersectionSE" to="intersectionSW___westBottom" depart="349" />    <trip id="northRight___southLeft_353" type="car" from="northRight___intersectionNE" to="intersectionSW___southLeft" depart="353" />    <trip id="southRight___northLeft_354" type="car" from="southRight___intersectionSE" to="intersectionNW___northLeft" depart="354" />    <trip id="westBottom___southLeft_355" type="car" from="westBottom___intersectionSW" to="intersectionSW___southLeft" depart="355" />    <trip id="southRight___westBottom_359" type="car" from="southRight___intersectionSE" to="intersectionSW___westBottom" depart="359" />    <trip id="eastTop___southLeft_360" type="car" from="eastTop___intersectionNE" to="intersectionSW___southLeft" depart="360" />    <trip id="eastBottom___northLeft_362" type="car" from="eastBottom___intersectionSE" to="intersectionNW___northLeft" depart="362" />    <trip id="northRight___northLeft_363" type="car" from="northRight___intersectionNE" to="intersectionNW___northLeft" depart="363" />    <trip id="southLeft___northRight_364" type="car" from="southLeft___intersectionSW" to="intersectionNE___northRight" depart="364" />    <trip id="eastTop___westBottom_366" type="car" from="eastTop___intersectionNE" to="intersectionSW___westBottom" depart="366" />    <trip id="southLeft___southRight_367" type="car" from="southLeft___intersectionSW" to="intersectionSE___southRight" depart="367" />    <trip id="northLeft___southLeft_369" type="car" from="northLeft___intersectionNW" to="intersectionSW___southLeft" depart="369" />    <trip id="southRight___northLeft_380" type="car" from="southRight___intersectionSE" to="intersectionNW___northLeft" depart="380" />    <trip id="southLeft___eastTop_382" type="car" from="southLeft___intersectionSW" to="intersectionNE___eastTop" depart="382" />    <trip id="eastTop___southRight_384" type="car" from="eastTop___intersectionNE" to="intersectionSE___southRight" depart="384" />    <trip id="westBottom___northLeft_385" type="car" from="westBottom___intersectionSW" to="intersectionNW___northLeft" depart="385" />    <trip id="westTop___southRight_385" type="car" from="westTop___intersectionNW" to="intersectionSE___southRight" depart="385" />    <trip id="southLeft___northRight_388" type="car" from="southLeft___intersectionSW" to="intersectionNE___northRight" depart="388" />    <trip id="northLeft___westTop_398" type="car" from="northLeft___intersectionNW" to="intersectionNW___westTop" depart="398" />    <trip id="southLeft___northLeft_398" type="car" from="southLeft___intersectionSW" to="intersectionNW___northLeft" depart="398" />    <trip id="northRight___westBottom_399" type="car" from="northRight___intersectionNE" to="intersectionSW___westBottom" depart="399" />    <trip id="southRight___westTop_400" type="car" from="southRight___intersectionSE" to="intersectionNW___westTop" depart="400" />    <trip id="westTop___eastTop_402" type="car" from="westTop___intersectionNW" to="intersectionNE___eastTop" depart="402" />    <trip id="southRight___eastTop_408" type="car" from="southRight___intersectionSE" to="intersectionNE___eastTop" depart="408" />    <trip id="northLeft___northRight_409" type="car" from="northLeft___intersectionNW" to="intersectionNE___northRight" depart="409" />    <trip id="southLeft___southRight_412" type="car" from="southLeft___intersectionSW" to="intersectionSE___southRight" depart="412" />    <trip id="westBottom___westTop_413" type="car" from="westBottom___intersectionSW" to="intersectionNW___westTop" depart="413" />    <trip id="northLeft___eastTop_414" type="car" from="northLeft___intersectionNW" to="intersectionNE___eastTop" depart="414" />    <trip id="westTop___eastTop_414" type="car" from="westTop___intersectionNW" to="intersectionNE___eastTop" depart="414" />    <trip id="westTop___westBottom_415" type="car" from="westTop___intersectionNW" to="intersectionSW___westBottom" depart="415" />    <trip id="southLeft___northLeft_416" type="car" from="southLeft___intersectionSW" to="intersectionNW___northLeft" depart="416" />    <trip id="southLeft___eastBottom_417" type="car" from="southLeft___intersectionSW" to="intersectionSE___eastBottom" depart="417" />    <trip id="westBottom___southRight_417" type="car" from="westBottom___intersectionSW" to="intersectionSE___southRight" depart="417" />    <trip id="northLeft___eastBottom_418" type="car" from="northLeft___intersectionNW" to="intersectionSE___eastBottom" depart="418" />    <trip id="westTop___southRight_421" type="car" from="westTop___intersectionNW" to="intersectionSE___southRight" depart="421" />    <trip id="southLeft___northRight_422" type="car" from="southLeft___intersectionSW" to="intersectionNE___northRight" depart="422" />    <trip id="southRight___westBottom_423" type="car" from="southRight___intersectionSE" to="intersectionSW___westBottom" depart="423" />    <trip id="southRight___southLeft_425" type="car" from="southRight___intersectionSE" to="intersectionSW___southLeft" depart="425" />    <trip id="eastTop___westBottom_426" type="car" from="eastTop___intersectionNE" to="intersectionSW___westBottom" depart="426" />    <trip id="eastTop___eastBottom_427" type="car" from="eastTop___intersectionNE" to="intersectionSE___eastBottom" depart="427" />    <trip id="westBottom___northLeft_427" type="car" from="westBottom___intersectionSW" to="intersectionNW___northLeft" depart="427" />    <trip id="northRight___westBottom_431" type="car" from="northRight___intersectionNE" to="intersectionSW___westBottom" depart="431" />    <trip id="southRight___westBottom_434" type="car" from="southRight___intersectionSE" to="intersectionSW___westBottom" depart="434" />    <trip id="westTop___eastTop_434" type="car" from="westTop___intersectionNW" to="intersectionNE___eastTop" depart="434" />    <trip id="southRight___westBottom_435" type="car" from="southRight___intersectionSE" to="intersectionSW___westBottom" depart="435" />    <trip id="eastBottom___southRight_437" type="car" from="eastBottom___intersectionSE" to="intersectionSE___southRight" depart="437" />    <trip id="westBottom___eastBottom_438" type="car" from="westBottom___intersectionSW" to="intersectionSE___eastBottom" depart="438" />    <trip id="northLeft___eastBottom_439" type="car" from="northLeft___intersectionNW" to="intersectionSE___eastBottom" depart="439" />    <trip id="westBottom___southLeft_440" type="car" from="westBottom___intersectionSW" to="intersectionSW___southLeft" depart="440" />    <trip id="northLeft___eastBottom_443" type="car" from="northLeft___intersectionNW" to="intersectionSE___eastBottom" depart="443" />    <trip id="southRight___eastBottom_446" type="car" from="southRight___intersectionSE" to="intersectionSE___eastBottom" depart="446" />    <trip id="eastTop___eastBottom_449" type="car" from="eastTop___intersectionNE" to="intersectionSE___eastBottom" depart="449" />    <trip id="northRight___southRight_452" type="car" from="northRight___intersectionNE" to="intersectionSE___southRight" depart="452" />    <trip id="westTop___northRight_455" type="car" from="westTop___intersectionNW" to="intersectionNE___northRight" depart="455" />    <trip id="southLeft___eastBottom_459" type="car" from="southLeft___intersectionSW" to="intersectionSE___eastBottom" depart="459" />    <trip id="southLeft___northRight_468" type="car" from="southLeft___intersectionSW" to="intersectionNE___northRight" depart="468" />    <trip id="westTop___southRight_469" type="car" from="westTop___intersectionNW" to="intersectionSE___southRight" depart="469" />    <trip id="westBottom___westTop_473" type="car" from="westBottom___intersectionSW" to="intersectionNW___westTop" depart="473" />    <trip id="southLeft___westTop_479" type="car" from="southLeft___intersectionSW" to="intersectionNW___westTop" depart="479" />    <trip id="northLeft___southRight_480" type="car" from="northLeft___intersectionNW" to="intersectionSE___southRight" depart="480" />    <trip id="westTop___southLeft_480" type="car" from="westTop___intersectionNW" to="intersectionSW___southLeft" depart="480" />    <trip id="northRight___westBottom_484" type="car" from="northRight___intersectionNE" to="intersectionSW___westBottom" depart="484" />    <trip id="eastTop___southLeft_486" type="car" from="eastTop___intersectionNE" to="intersectionSW___southLeft" depart="486" />    <trip id="southLeft___eastTop_488" type="car" from="southLeft___intersectionSW" to="intersectionNE___eastTop" depart="488" />    <trip id="eastBottom___northRight_489" type="car" from="eastBottom___intersectionSE" to="intersectionNE___northRight" depart="489" />    <trip id="northLeft___westBottom_490" type="car" from="northLeft___intersectionNW" to="intersectionSW___westBottom" depart="490" />    <trip id="southLeft___eastBottom_492" type="car" from="southLeft___intersectionSW" to="intersectionSE___eastBottom" depart="492" />    <trip id="westTop___northLeft_492" type="car" from="westTop___intersectionNW" to="intersectionNW___northLeft" depart="492" />    <trip id="westTop___eastBottom_493" type="car" from="westTop___intersectionNW" to="intersectionSE___eastBottom" depart="493" />    <trip id="eastTop___southLeft_494" type="car" from="eastTop___intersectionNE" to="intersectionSW___southLeft" depart="494" />    <trip id="southRight___northLeft_494" type="car" from="southRight___intersectionSE" to="intersectionNW___northLeft" depart="494" />    <trip id="southLeft___eastBottom_495" type="car" from="southLeft___intersectionSW" to="intersectionSE___eastBottom" depart="495" />    <trip id="southRight___northLeft_495" type="car" from="southRight___intersectionSE" to="intersectionNW___northLeft" depart="495" />    <trip id="eastBottom___northRight_497" type="car" from="eastBottom___intersectionSE" to="intersectionNE___northRight" depart="497" />    <trip id="westTop___southRight_498" 