
        <routes>
            <vType id="car" accel="0.8" decel="4.5" sigma="0.5" length="5" minGap="2.5" maxSpeed="15" guiShape="passenger"/>
            <trip id="eastThree___westTwo_1" type="car" from="eastThree___intersectionTwelve" to="intersectionFive___westTwo" depart="1" />    <trip id="eastThree___eastTwo_2" type="car" from="eastThree___intersectionTwelve" to="intersectionEight___eastTwo" depart="2" />    <trip id="northOne___westOne_2" type="car" from="northOne___intersectionOne" to="intersectionOne___westOne" depart="2" />    <trip id="westThree___eastOne_2" type="car" from="westThree___intersectionNine" to="intersectionFour___eastOne" depart="2" />    <trip id="eastOne___eastTwo_3" type="car" from="eastOne___intersectionFour" to="intersectionEight___eastTwo" depart="3" />    <trip id="eastFour___northThree_5" type="car" from="eastFour___intersectionSixteen" to="intersectionThree___northThree" depart="5" />    <trip id="eastOne___southFour_5" type="car" from="eastOne___intersectionFour" to="intersectionSixteen___southFour" depart="5" />    <trip id="northOne___eastThree_6" type="car" from="northOne___intersectionOne" to="intersectionTwelve___eastThree" depart="6" />    <trip id="northThree___northTwo_6" type="car" from="northThree___intersectionThree" to="intersectionTwo___northTwo" depart="6" />    <trip id="southTwo___southFour_8" type="car" from="southTwo___intersectionFourteen" to="intersectionSixteen___southFour" depart="8" />    <trip id="eastThree___westOne_9" type="car" from="eastThree___intersectionTwelve" to="intersectionOne___westOne" depart="9" />    <trip id="southTwo___southOne_9" type="car" from="southTwo___intersectionFourteen" to="intersectionThirteen___southOne" depart="9" />    <trip id="westTwo___northFour_12" type="car" from="westTwo___intersectionFive" to="intersectionFour___northFour" depart="12" />    <trip id="southThree___northOne_13" type="car" from="southThree___intersectionFifthteen" to="intersectionOne___northOne" depart="13" />    <trip id="westThree___eastThree_16" type="car" from="westThree___intersectionNine" to="intersectionTwelve___eastThree" depart="16" />    <trip id="westFour___westOne_17" type="car" from="westFour___intersectionThirteen" to="intersectionOne___westOne" depart="17" />    <trip id="eastOne___westThree_18" type="car" from="eastOne___intersectionFour" to="intersectionNine___westThree" depart="18" />    <trip id="eastThree___westThree_19" type="car" from="eastThree___intersectionTwelve" to="intersectionNine___westThree" depart="19" />    <trip id="westFour___eastFour_20" type="car" from="westFour___intersectionThirteen" to="intersectionSixteen___eastFour" depart="20" />    <trip id="northOne___northFour_21" type="car" from="northOne___intersectionOne" to="intersectionFour___northFour" depart="21" />    <trip id="westOne___southFour_22" type="car" from="westOne___intersectionOne" to="intersectionSixteen___southFour" depart="22" />    <trip id="northOne___eastThree_23" type="car" from="northOne___intersectionOne" to="intersectionTwelve___eastThree" depart="23" />    <trip id="westThree___northOne_24" type="car" from="westThree___intersectionNine" to="intersectionOne___northOne" depart="24" />    <trip id="southThree___eastOne_27" type="car" from="southThree___intersectionFifthteen" to="intersectionFour___eastOne" depart="27" />    <trip id="westFour___eastThree_27" type="car" from="westFour___intersectionThirteen" to="intersectionTwelve___eastThree" depart="27" />    <trip id="eastFour___westOne_28" type="car" from="eastFour___intersectionSixteen" to="intersectionOne___westOne" depart="28" />    <trip id="eastOne___eastThree_28" type="car" from="eastOne___intersectionFour" to="intersectionTwelve___eastThree" depart="28" />    <trip id="northThree___eastTwo_28" type="car" from="northThree___intersectionThree" to="intersectionEight___eastTwo" depart="28" />    <trip id="eastOne___southThree_32" type="car" from="eastOne___intersectionFour" to="intersectionFifthteen___southThree" depart="32" />    <trip id="westOne___westFour_32" type="car" from="westOne___intersectionOne" to="intersectionThirteen___westFour" depart="32" />    <trip id="northOne___eastOne_33" type="car" from="northOne___intersectionOne" to="intersectionFour___eastOne" depart="33" />    <trip id="westThree___eastOne_33" type="car" from="westThree___intersectionNine" to="intersectionFour___eastOne" depart="33" />    <trip id="westThree___eastOne_36" type="car" from="westThree___intersectionNine" to="intersectionFour___eastOne" depart="36" />    <trip id="eastThree___eastTwo_38" type="car" from="eastThree___intersectionTwelve" to="intersectionEight___eastTwo" depart="38" />    <trip id="westOne___northThree_39" type="car" from="westOne___intersectionOne" to="intersectionThree___northThree" depart="39" />    <trip id="westThree___northOne_40" type="car" from="westThree___intersectionNine" to="intersectionOne___northOne" depart="40" />    <trip id="northOne___southFour_41" type="car" from="northOne___intersectionOne" to="intersectionSixteen___southFour" depart="41" />    <trip id="eastTwo___northOne_43" type="car" from="eastTwo___intersectionEight" to="intersectionOne___northOne" depart="43" />    <trip id="northOne___westThree_43" type="car" from="northOne___intersectionOne" to="intersectionNine___westThree" depart="43" />    <trip id="northThree___southOne_43" type="car" from="northThree___intersectionThree" to="intersectionThirteen___southOne" depart="43" />    <trip id="westFour___southOne_44" type="car" from="westFour___intersectionThirteen" to="intersectionThirteen___southOne" depart="44" />    <trip id="northFour___southFour_46" type="car" from="northFour___intersectionFour" to="intersectionSixteen___southFour" depart="46" />    <trip id="westFour___northOne_46" type="car" from="westFour___intersectionThirteen" to="intersectionOne___northOne" depart="46" />    <trip id="westThree___eastFour_46" type="car" from="westThree___intersectionNine" to="intersectionSixteen___eastFour" depart="46" />    <trip id="westTwo___northTwo_46" type="car" from="westTwo___intersectionFive" to="intersectionTwo___northTwo" depart="46" />    <trip id="eastOne___southFour_48" type="car" from="eastOne___intersectionFour" to="intersectionSixteen___southFour" depart="48" />    <trip id="westThree___westTwo_48" type="car" from="westThree___intersectionNine" to="intersectionFive___westTwo" depart="48" />    <trip id="southFour___southTwo_49" type="car" from="southFour___intersectionSixteen" to="intersectionFourteen___southTwo" depart="49" />    <trip id="northFour___northTwo_50" type="car" from="northFour___intersectionFour" to="intersectionTwo___northTwo" depart="50" />    <trip id="northOne___eastOne_50" type="car" from="northOne___intersectionOne" to="intersectionFour___eastOne" depart="50" />    <trip id="eastFour___southThree_51" type="car" from="eastFour___intersectionSixteen" to="intersectionFifthteen___southThree" depart="51" />    <trip id="westFour___northThree_51" type="car" from="westFour___intersectionThirteen" to="intersectionThree___northThree" depart="51" />    <trip id="southTwo___eastOne_52" type="car" from="southTwo___intersectionFourteen" to="intersectionFour___eastOne" depart="52" />    <trip id="eastFour___westThree_53" type="car" from="eastFour___intersectionSixteen" to="intersectionNine___westThree" depart="53" />    <trip id="southOne___southTwo_53" type="car" from="southOne___intersectionThirteen" to="intersectionFourteen___southTwo" depart="53" />    <trip id="northThree___southThree_55" type="car" from="northThree___intersectionThree" to="intersectionFifthteen___southThree" depart="55" />    <trip id="eastOne___westOne_57" type="car" from="eastOne___intersectionFour" to="intersectionOne___westOne" depart="57" />    <trip id="eastThree___southTwo_58" type="car" from="eastThree___intersectionTwelve" to="intersectionFourteen___southTwo" depart="58" />    <trip id="eastFour___northOne_60" type="car" from="eastFour___intersectionSixteen" to="intersectionOne___northOne" depart="60" />    <trip id="southOne___westOne_61" type="car" from="southOne___intersectionThirteen" to="intersectionOne___westOne" depart="61" />    <trip id="southOne___northFour_62" type="car" from="southOne___intersectionThirteen" to="intersectionFour___northFour" depart="62" />    <trip id="southThree___southTwo_62" type="car" from="southThree___intersectionFifthteen" to="intersectionFourteen___southTwo" depart="62" />    <trip id="northThree___northFour_63" type="car" from="northThree___intersectionThree" to="intersectionFour___northFour" depart="63" />    <trip id="southTwo___westFour_64" type="car" from="southTwo___intersectionFourteen" to="intersectionThirteen___westFour" depart="64" />    <trip id="eastThree___southFour_65" type="car" from="eastThree___intersectionTwelve" to="intersectionSixteen___southFour" depart="65" />    <trip id="eastFour___southOne_66" type="car" from="eastFour___intersectionSixteen" to="intersectionThirteen___southOne" depart="66" />    <trip id="northThree___eastThree_66" type="car" from="northThree___intersectionThree" to="intersectionTwelve___eastThree" depart="66" />    <trip id="northFour___westThree_68" type="car" from="northFour___intersectionFour" to="intersectionNine___westThree" depart="68" />    <trip id="southOne___northThree_71" type="car" from="southOne___intersectionThirteen" to="intersectionThree___northThree" depart="71" />    <trip id="eastThree___northFour_72" type="car" from="eastThree___intersectionTwelve" to="intersectionFour___northFour" depart="72" />    <trip id="eastTwo___southFour_72" type="car" from="eastTwo___intersectionEight" to="intersectionSixteen___southFour" depart="72" />    <trip id="southTwo___westFour_74" type="car" from="southTwo___intersectionFourteen" to="intersectionThirteen___westFour" depart="74" />    <trip id="southOne___northFour_78" type="car" from="southOne___intersectionThirteen" to="intersectionFour___northFour" depart="78" />    <trip id="southThree___westOne_79" type="car" from="southThree___intersectionFifthteen" to="intersectionOne___westOne" depart="79" />    <trip id="southFour___northFour_81" type="car" from="southFour___intersectionSixteen" to="intersectionFour___northFour" depart="81" />    <trip id="westFour___eastThree_82" type="car" from="westFour___intersectionThirteen" to="intersectionTwelve___eastThree" depart="82" />    <trip id="southOne___northThree_83" type="car" from="southOne___intersectionThirteen" to="intersectionThree___northThree" depart="83" />    <trip id="westThree___northTwo_83" type="car" from="westThree___intersectionNine" to="intersectionTwo___northTwo" depart="83" />    <trip id="northThree___eastThree_85" type="car" from="northThree___intersectionThree" to="intersectionTwelve___eastThree" depart="85" />    <trip id="southOne___westOne_85" type="car" from="southOne___intersectionThirteen" to="intersectionOne___westOne" depart="85" />    <trip id="eastOne___northThree_86" type="car" from="eastOne___intersectionFour" to="intersectionThree___northThree" depart="86" />    <trip id="southTwo___eastThree_86" type="car" from="southTwo___intersectionFourteen" to="intersectionTwelve___eastThree" depart="86" />    <trip id="northThree___eastFour_87" type="car" from="northThree___intersectionThree" to="intersectionSixteen___eastFour" depart="87" />    <trip id="eastTwo___westTwo_88" type="car" from="eastTwo___intersectionEight" to="intersectionFive___westTwo" depart="88" />    <trip id="eastThree___westFour_89" type="car" from="eastThree___intersectionTwelve" to="intersectionThirteen___westFour" depart="89" />    <trip id="northThree___westTwo_89" type="car" from="northThree___intersectionThree" to="intersectionFive___westTwo" depart="89" />    <trip id="southFour___northThree_89" type="car" from="southFour___intersectionSixteen" to="intersectionThree___northThree" depart="89" />    <trip id="eastTwo___northTwo_93" type="car" from="eastTwo___intersectionEight" to="intersectionTwo___northTwo" depart="93" />    <trip id="eastThree___eastTwo_96" type="car" from="eastThree___intersectionTwelve" to="intersectionEight___eastTwo" depart="96" />    <trip id="northFour___southFour_96" type="car" from="northFour___intersectionFour" to="intersectionSixteen___southFour" depart="96" />    <trip id="northThree___eastFour_97" type="car" from="northThree___intersectionThree" to="intersectionSixteen___eastFour" depart="97" />    <trip id="southTwo___westTwo_97" type="car" from="southTwo___intersectionFourteen" to="intersectionFive___westTwo" depart="97" />    <trip id="westTwo___westOne_97" type="car" from="westTwo___intersectionFive" to="intersectionOne___westOne" depart="97" />    <trip id="eastOne___southFour_100" type="car" from="eastOne___intersectionFour" to="intersectionSixteen___southFour" depart="100" />    <trip id="southTwo___westThree_100" type="car" from="southTwo___intersectionFourteen" to="intersectionNine___westThree" depart="100" />    <trip id="westFour___northFour_101" type="car" from="westFour___intersectionThirteen" to="intersectionFour___northFour" depart="101" />    <trip id="southThree___eastThree_102" type="car" from="southThree___intersectionFifthteen" to="intersectionTwelve___eastThree" depart="102" />    <trip id="southTwo___northFour_102" type="car" from="southTwo___intersectionFourteen" to="intersectionFour___northFour" depart="102" />    <trip id="eastOne___northThree_103" type="car" from="eastOne___intersectionFour" to="intersectionThree___northThree" depart="103" />    <trip id="westThree___northTwo_103" type="car" from="westThree___intersectionNine" to="intersectionTwo___northTwo" depart="103" />    <trip id="westTwo___northThree_103" type="car" from="westTwo___intersectionFive" to="intersectionThree___northThree" depart="103" />    <trip id="eastOne___northFour_105" type="car" from="eastOne___intersectionFour" to="intersectionFour___northFour" depart="105" />    <trip id="eastTwo___northOne_106" type="car" from="eastTwo___intersectionEight" to="intersectionOne___northOne" depart="106" />    <trip id="eastTwo___eastThree_107" type="car" from="eastTwo___intersectionEight" to="intersectionTwelve___eastThree" depart="107" />    <trip id="northFour___northOne_108" type="car" from="northFour___intersectionFour" to="intersectionOne___northOne" depart="108" />    <trip id="northThree___westThree_109" type="car" from="northThree___intersectionThree" to="intersectionNine___westThree" depart="109" />    <trip id="eastFour___eastOne_110" type="car" from="eastFour___intersectionSixteen" to="intersectionFour___eastOne" depart="110" />    <trip id="southFour___eastFour_110" type="car" from="southFour___intersectionSixteen" to="intersectionSixteen___eastFour" depart="110" />    <trip id="westFour___southOne_110" type="car" from="westFour___intersectionThirteen" to="intersectionThirteen___southOne" depart="110" />    <trip id="westThree___northOne_111" type="car" from="westThree___intersectionNine" to="intersectionOne___northOne" depart="111" />    <trip id="eastTwo___southFour_112" type="car" from="eastTwo___intersectionEight" to="intersectionSixteen___southFour" depart="112" />    <trip id="southOne___westOne_112" type="car" from="southOne___intersectionThirteen" to="intersectionOne___westOne" depart="112" />    <trip id="northFour___westTwo_114" type="car" from="northFour___intersectionFour" to="intersectionFive___westTwo" depart="114" />    <trip id="southOne___eastFour_114" type="car" from="southOne___intersectionThirteen" to="intersectionSixteen___eastFour" depart="114" />    <trip id="eastThree___southOne_116" type="car" from="eastThree___intersectionTwelve" to="intersectionThirteen___southOne" depart="116" />    <trip id="northTwo___northOne_118" type="car" from="northTwo___intersectionTwo" to="intersectionOne___northOne" depart="118" />    <trip id="eastThree___northOne_119" type="car" from="eastThree___intersectionTwelve" to="intersectionOne___northOne" depart="119" />    <trip id="northTwo___eastThree_120" type="car" from="northTwo___intersectionTwo" to="intersectionTwelve___eastThree" depart="120" />    <trip id="eastThree___northFour_121" type="car" from="eastThree___intersectionTwelve" to="intersectionFour___northFour" depart="121" />    <trip id="northOne___westThree_124" type="car" from="northOne___intersectionOne" to="intersectionNine___westThree" depart="124" />    <trip id="westThree___northOne_127" type="car" from="westThree___intersectionNine" to="intersectionOne___northOne" depart="127" />    <trip id="westFour___westOne_131" type="car" from="westFour___intersectionThirteen" to="intersectionOne___westOne" depart="131" />    <trip id="westThree___eastFour_132" type="car" from="westThree___intersectionNine" to="intersectionSixteen___eastFour" depart="132" />    <trip id="eastFour___eastThree_134" type="car" from="eastFour___intersectionSixteen" to="intersectionTwelve___eastThree" depart="134" />    <trip id="westThree___eastFour_136" type="car" from="westThree___intersectionNine" to="intersectionSixteen___eastFour" depart="136" />    <trip id="southOne___southThree_137" type="car" from="southOne___intersectionThirteen" to="intersectionFifthteen___southThree" depart="137" />    <trip id="northThree___westOne_138" type="car" from="northThree___intersectionThree" to="intersectionOne___westOne" depart="138" />    <trip id="eastOne___westThree_139" type="car" from="eastOne___intersectionFour" to="intersectionNine___westThree" depart="139" />    <trip id="eastTwo___southOne_139" type="car" from="eastTwo___intersectionEight" to="intersectionThirteen___southOne" depart="139" />    <trip id="northTwo___southOne_139" type="car" from="northTwo___intersectionTwo" to="intersectionThirteen___southOne" depart="139" />    <trip id="westThree___northTwo_139" type="car" from="westThree___intersectionNine" to="intersectionTwo___northTwo" depart="139" />    <trip id="northOne___eastThree_140" type="car" from="northOne___intersectionOne" to="intersectionTwelve___eastThree" depart="140" />    <trip id="northThree___southOne_142" type="car" from="northThree___intersectionThree" to="intersectionThirteen___southOne" depart="142" />    <trip id="westTwo___southFour_142" type="car" from="westTwo___intersectionFive" to="intersectionSixteen___southFour" depart="142" />    <trip id="southTwo___westOne_146" type="car" from="southTwo___intersectionFourteen" to="intersectionOne___westOne" depart="146" />    <trip id="eastThree___eastOne_147" type="car" from="eastThree___intersectionTwelve" to="intersectionFour___eastOne" depart="147" />    <trip id="westTwo___eastTwo_147" type="car" from="westTwo___intersectionFive" to="intersectionEight___eastTwo" depart="147" />    <trip id="eastFour___westFour_148" type="car" from="eastFour___intersectionSixteen" to="intersectionThirteen___westFour" depart="148" />    <trip id="southThree___southOne_148" type="car" from="southThree___intersectionFifthteen" to="intersectionThirteen___southOne" depart="148" />    <trip id="westOne___southThree_148" type="car" from="westOne___intersectionOne" to="intersectionFifthteen___southThree" depart="148" />    <trip id="northFour___westFour_149" type="car" from="northFour___intersectionFour" to="intersectionThirteen___westFour" depart="149" />    <trip id="northFour___southThree_150" type="car" from="northFour___intersectionFour" to="intersectionFifthteen___southThree" depart="150" />    <trip id="westFour___northTwo_150" type="car" from="westFour___intersectionThirteen" to="intersectionTwo___northTwo" depart="150" />    <trip id="northTwo___southTwo_153" type="car" from="northTwo___intersectionTwo" to="intersectionFourteen___southTwo" depart="153" />    <trip id="southOne___eastThree_157" type="car" from="southOne___intersectionThirteen" to="intersectionTwelve___eastThree" depart="157" />    <trip id="northFour___westTwo_158" type="car" from="northFour___intersectionFour" to="intersectionFive___westTwo" depart="158" />    <trip id="northOne___southThree_163" type="car" from="northOne___intersectionOne" to="intersectionFifthteen___southThree" depart="163" />    <trip id="northFour___eastFour_165" type="car" from="northFour___intersectionFour" to="intersectionSixteen___eastFour" depart="165" />    <trip id="southTwo___eastOne_165" type="car" from="southTwo___intersectionFourteen" to="intersectionFour___eastOne" depart="165" />    <trip id="westTwo___southThree_165" type="car" from="westTwo___intersectionFive" to="intersectionFifthteen___southThree" depart="165" />    <trip id="eastThree___eastFour_166" type="car" from="eastThree___intersectionTwelve" to="intersectionSixteen___eastFour" depart="166" />    <trip id="southOne___northFour_166" type="car" from="southOne___intersectionThirteen" to="intersectionFour___northFour" depart="166" />    <trip id="eastThree___northTwo_167" type="car" from="eastThree___intersectionTwelve" to="intersectionTwo___northTwo" depart="167" />    <trip id="eastThree___southThree_168" type="car" from="eastThree___intersectionTwelve" to="intersectionFifthteen___southThree" depart="168" />    <trip id="southThree___southFour_169" type="car" from="southThree___intersectionFifthteen" to="intersectionSixteen___southFour" depart="169" />    <trip id="eastOne___southFour_172" type="car" from="eastOne___intersectionFour" to="intersectionSixteen___southFour" depart="172" />    <trip id="southOne___westOne_172" type="car" from="southOne___intersectionThirteen" to="intersectionOne___westOne" depart="172" />    <trip id="westFour___southOne_172" type="car" from="westFour___intersectionThirteen" to="intersectionThirteen___southOne" depart="172" />    <trip id="eastTwo___northOne_173" type="car" from="eastTwo___intersectionEight" to="intersectionOne___northOne" depart="173" />    <trip id="eastFour___southOne_174" type="car" from="eastFour___intersectionSixteen" to="intersectionThirteen___southOne" depart="174" />    <trip id="southFour___eastThree_175" type="car" from="southFour___intersectionSixteen" to="intersectionTwelve___eastThree" depart="175" />    <trip id="eastFour___northThree_180" type="car" from="eastFour___intersectionSixteen" to="intersectionThree___northThree" depart="180" />    <trip id="eastOne___southThree_180" type="car" from="eastOne___intersectionFour" to="intersectionFifthteen___southThree" depart="180" />    <trip id="southTwo___eastThree_181" type="car" from="southTwo___intersectionFourteen" to="intersectionTwelve___eastThree" depart="181" />    <trip id="northFour___westThree_182" type="car" from="northFour___intersectionFour" to="intersectionNine___westThree" depart="182" />    <trip id="eastFour___eastThree_183" type="car" from="eastFour___intersectionSixteen" to="intersectionTwelve___eastThree" depart="183" />    <trip id="southThree___northThree_183" type="car" from="southThree___intersectionFifthteen" to="intersectionThree___northThree" depart="183" />    <trip id="westFour___northTwo_183" type="car" from="westFour___intersectionThirteen" to="intersectionTwo___northTwo" depart="183" />    <trip id="eastOne___southThree_185" type="car" from="eastOne___intersectionFour" to="intersectionFifthteen___southThree" depart="185" />    <trip id="southThree___westTwo_185" type="car" from="southThree___intersectionFifthteen" to="intersectionFive___westTwo" depart="185" />    <trip id="eastOne___southThree_186" type="car" from="eastOne___intersectionFour" to="intersectionFifthteen___southThree" depart="186" />    <trip id="westFour___southFour_189" type="car" from="westFour___intersectionThirteen" to="intersectionSixteen___southFour" depart="189" />    <trip id="southTwo___southFour_190" type="car" from="southTwo___intersectionFourteen" to="intersectionSixteen___southFour" depart="190" />    <trip id="southTwo___westFour_191" type="car" from="southTwo___intersectionFourteen" to="intersectionThirteen___westFour" depart="191" />    <trip id="westTwo___northFour_191" type="car" from="westTwo___intersectionFive" to="intersectionFour___northFour" depart="191" />    <trip id="northFour___eastThree_193" type="car" from="northFour___intersectionFour" to="intersectionTwelve___eastThree" depart="193" />    <trip id="southThree___eastOne_193" type="car" from="southThree___intersectionFifthteen" to="intersectionFour___eastOne" depart="193" />    <trip id="eastOne___northOne_194" type="car" from="eastOne___intersectionFour" to="intersectionOne___northOne" depart="194" />    <trip id="southTwo___eastFour_196" type="car" from="southTwo___intersectionFourteen" to="intersectionSixteen___eastFour" depart="196" />    <trip id="westTwo___northThree_196" type="car" from="westTwo___intersectionFive" to="intersectionThree___northThree" depart="196" />    <trip id="southFour___westFour_198" type="car" from="southFour___intersectionSixteen" to="intersectionThirteen___westFour" depart="198" />    <trip id="eastFour___southFour_199" type="car" from="eastFour___intersectionSixteen" to="intersectionSixteen___southFour" depart="199" />    <trip id="southTwo___northFour_199" type="car" from="southTwo___intersectionFourteen" to="intersectionFour___northFour" depart="199" />    <trip id="northThree___eastFour_201" type="car" from="northThree___intersectionThree" to="intersectionSixteen___eastFour" depart="201" />    <trip id="westTwo___eastFour_202" type="car" from="westTwo___intersectionFive" to="intersectionSixteen___eastFour" depart="202" />    <trip id="northOne___eastThree_203" type="car" from="northOne___intersectionOne" to="intersectionTwelve___eastThree" depart="203" />    <trip id="westThree___northFour_203" type="car" from="westThree___intersectionNine" to="intersectionFour___northFour" depart="203" />    <trip id="westTwo___westFour_203" type="car" from="westTwo___intersectionFive" to="intersectionThirteen___westFour" depart="203" />    <trip id="southOne___southTwo_206" type="car" from="southOne___intersectionThirteen" to="intersectionFourteen___southTwo" depart="206" />    <trip id="southThree___westThree_207" type="car" from="southThree___intersectionFifthteen" to="intersectionNine___westThree" depart="207" />    <trip id="westThree___northOne_207" type="car" from="westThree___intersectionNine" to="intersectionOne___northOne" depart="207" />    <trip id="southThree___westTwo_208" type="car" from="southThree___intersectionFifthteen" to="intersectionFive___westTwo" depart="208" />    <trip id="northThree___southOne_211" type="car" from="northThree___intersectionThree" to="intersectionThirteen___southOne" depart="211" />    <trip id="westTwo___northThree_213" type="car" from="westTwo___intersectionFive" to="intersectionThree___northThree" depart="213" />    <trip id="eastThree___eastOne_214" type="car" from="eastThree___intersectionTwelve" to="intersectionFour___eastOne" depart="214" />    <trip id="westTwo___southOne_216" type="car" from="westTwo___intersectionFive" to="intersectionThirteen___southOne" depart="216" />    <trip id="southFour___northThree_218" type="car" from="southFour___intersectionSixteen" to="intersectionThree___northThree" depart="218" />    <trip id="southThree___eastThree_218" type="car" from="southThree___intersectionFifthteen" to="intersectionTwelve___eastThree" depart="218" />    <trip id="eastThree___westThree_219" type="car" from="eastThree___intersectionTwelve" to="intersectionNine___westThree" depart="219" />    <trip id="southFour___southOne_222" type="car" from="southFour___intersectionSixteen" to="intersectionThirteen___southOne" depart="222" />    <trip id="northThree___southFour_223" type="car" from="northThree___intersectionThree" to="intersectionSixteen___southFour" depart="223" />    <trip id="southOne___eastTwo_223" type="car" from="southOne___intersectionThirteen" to="intersectionEight___eastTwo" depart="223" />    <trip id="westTwo___westThree_225" type="car" from="westTwo___intersectionFive" to="intersectionNine___westThree" depart="225" />    <trip id="westThree___southFour_227" type="car" from="westThree___intersectionNine" to="intersectionSixteen___southFour" depart="227" />    <trip id="eastOne___northFour_228" type="car" from="eastOne___intersectionFour" to="intersectionFour___northFour" depart="228" />    <trip id="northOne___eastOne_228" type="car" from="northOne___intersectionOne" to="intersectionFour___eastOne" depart="228" />    <trip id="southTwo___southThree_228" type="car" from="southTwo___intersectionFourteen" to="intersectionFifthteen___southThree" depart="228" />    <trip id="northTwo___westThree_229" type="car" from="northTwo___intersectionTwo" to="intersectionNine___westThree" depart="229" />    <trip id="eastFour___westFour_230" type="car" from="eastFour___intersectionSixteen" to="intersectionThirteen___westFour" depart="230" />    <trip id="southTwo___westOne_230" type="car" from="southTwo___intersectionFourteen" to="intersectionOne___westOne" depart="230" />    <trip id="eastFour___westThree_232" type="car" from="eastFour___intersectionSixteen" to="intersectionNine___westThree" depart="232" />    <trip id="eastTwo___westOne_232" type="car" from="eastTwo___intersectionEight" to="intersectionOne___westOne" depart="232" />    <trip id="westFour___northFour_232" type="car" from="westFour___intersectionThirteen" to="intersectionFour___northFour" depart="232" />    <trip id="westOne___westFour_232" type="car" from="westOne___intersectionOne" to="intersectionThirteen___westFour" depart="232" />    <trip id="northTwo___eastOne_235" type="car" from="northTwo___intersectionTwo" to="intersectionFour___eastOne" depart="235" />    <trip id="southThree___northTwo_235" type="car" from="southThree___intersectionFifthteen" to="intersectionTwo___northTwo" depart="235" />    <trip id="eastTwo___westOne_236" type="car" from="eastTwo___intersectionEight" to="intersectionOne___westOne" depart="236" />    <trip id="northFour___northOne_236" type="car" from="northFour___intersectionFour" to="intersectionOne___northOne" depart="236" />    <trip id="westTwo___westThree_236" type="car" from="westTwo___intersectionFive" to=