
        <routes>
            <vType id="car" accel="0.8" decel="4.5" sigma="0.5" length="5" minGap="2.5" maxSpeed="15" guiShape="passenger"/>
            <trip id="southFour___southOne_1" type="car" from="southFour___intersectionSixteen" to="intersectionThirteen___southOne" depart="1" />    <trip id="eastThree___westFour_2" type="car" from="eastThree___intersectionTwelve" to="intersectionThirteen___westFour" depart="2" />    <trip id="westTwo___northFour_2" type="car" from="westTwo___intersectionFive" to="intersectionFour___northFour" depart="2" />    <trip id="northOne___eastFour_3" type="car" from="northOne___intersectionOne" to="intersectionSixteen___eastFour" depart="3" />    <trip id="eastFour___eastOne_5" type="car" from="eastFour___intersectionSixteen" to="intersectionFour___eastOne" depart="5" />    <trip id="eastFour___eastTwo_6" type="car" from="eastFour___intersectionSixteen" to="intersectionEight___eastTwo" depart="6" />    <trip id="westTwo___southThree_7" type="car" from="westTwo___intersectionFive" to="intersectionFifthteen___southThree" depart="7" />    <trip id="northFour___southThree_8" type="car" from="northFour___intersectionFour" to="intersectionFifthteen___southThree" depart="8" />    <trip id="westTwo___northOne_8" type="car" from="westTwo___intersectionFive" to="intersectionOne___northOne" depart="8" />    <trip id="southThree___southTwo_10" type="car" from="southThree___intersectionFifthteen" to="intersectionFourteen___southTwo" depart="10" />    <trip id="westTwo___northOne_11" type="car" from="westTwo___intersectionFive" to="intersectionOne___northOne" depart="11" />    <trip id="southTwo___westFour_13" type="car" from="southTwo___intersectionFourteen" to="intersectionThirteen___westFour" depart="13" />    <trip id="westThree___eastFour_13" type="car" from="westThree___intersectionNine" to="intersectionSixteen___eastFour" depart="13" />    <trip id="eastFour___southThree_18" type="car" from="eastFour___intersectionSixteen" to="intersectionFifthteen___southThree" depart="18" />    <trip id="westOne___eastThree_19" type="car" from="westOne___intersectionOne" to="intersectionTwelve___eastThree" depart="19" />    <trip id="southThree___northFour_20" type="car" from="southThree___intersectionFifthteen" to="intersectionFour___northFour" depart="20" />    <trip id="eastFour___northOne_21" type="car" from="eastFour___intersectionSixteen" to="intersectionOne___northOne" depart="21" />    <trip id="eastFour___southTwo_22" type="car" from="eastFour___intersectionSixteen" to="intersectionFourteen___southTwo" depart="22" />    <trip id="northOne___northFour_23" type="car" from="northOne___intersectionOne" to="intersectionFour___northFour" depart="23" />    <trip id="southFour___southThree_23" type="car" from="southFour___intersectionSixteen" to="intersectionFifthteen___southThree" depart="23" />    <trip id="eastTwo___northFour_24" type="car" from="eastTwo___intersectionEight" to="intersectionFour___northFour" depart="24" />    <trip id="eastThree___southFour_25" type="car" from="eastThree___intersectionTwelve" to="intersectionSixteen___southFour" depart="25" />    <trip id="eastTwo___eastThree_25" type="car" from="eastTwo___intersectionEight" to="intersectionTwelve___eastThree" depart="25" />    <trip id="westThree___eastTwo_25" type="car" from="westThree___intersectionNine" to="intersectionEight___eastTwo" depart="25" />    <trip id="southFour___eastFour_26" type="car" from="southFour___intersectionSixteen" to="intersectionSixteen___eastFour" depart="26" />    <trip id="southTwo___northOne_26" type="car" from="southTwo___intersectionFourteen" to="intersectionOne___northOne" depart="26" />    <trip id="westTwo___eastTwo_27" type="car" from="westTwo___intersectionFive" to="intersectionEight___eastTwo" depart="27" />    <trip id="westFour___westThree_28" type="car" from="westFour___intersectionThirteen" to="intersectionNine___westThree" depart="28" />    <trip id="eastThree___northFour_29" type="car" from="eastThree___intersectionTwelve" to="intersectionFour___northFour" depart="29" />    <trip id="westFour___northOne_29" type="car" from="westFour___intersectionThirteen" to="intersectionOne___northOne" depart="29" />    <trip id="westTwo___southThree_29" type="car" from="westTwo___intersectionFive" to="intersectionFifthteen___southThree" depart="29" />    <trip id="eastFour___southThree_32" type="car" from="eastFour___intersectionSixteen" to="intersectionFifthteen___southThree" depart="32" />    <trip id="eastThree___westThree_32" type="car" from="eastThree___intersectionTwelve" to="intersectionNine___westThree" depart="32" />    <trip id="northOne___westTwo_32" type="car" from="northOne___intersectionOne" to="intersectionFive___westTwo" depart="32" />    <trip id="westThree___eastThree_32" type="car" from="westThree___intersectionNine" to="intersectionTwelve___eastThree" depart="32" />    <trip id="eastThree___northThree_33" type="car" from="eastThree___intersectionTwelve" to="intersectionThree___northThree" depart="33" />    <trip id="westTwo___eastOne_33" type="car" from="westTwo___intersectionFive" to="intersectionFour___eastOne" depart="33" />    <trip id="westThree___northThree_34" type="car" from="westThree___intersectionNine" to="intersectionThree___northThree" depart="34" />    <trip id="westFour___westThree_35" type="car" from="westFour___intersectionThirteen" to="intersectionNine___westThree" depart="35" />    <trip id="eastTwo___northFour_37" type="car" from="eastTwo___intersectionEight" to="intersectionFour___northFour" depart="37" />    <trip id="southThree___northTwo_37" type="car" from="southThree___intersectionFifthteen" to="intersectionTwo___northTwo" depart="37" />    <trip id="westTwo___southThree_37" type="car" from="westTwo___intersectionFive" to="intersectionFifthteen___southThree" depart="37" />    <trip id="eastTwo___westOne_38" type="car" from="eastTwo___intersectionEight" to="intersectionOne___westOne" depart="38" />    <trip id="southThree___westTwo_38" type="car" from="southThree___intersectionFifthteen" to="intersectionFive___westTwo" depart="38" />    <trip id="westTwo___northThree_38" type="car" from="westTwo___intersectionFive" to="intersectionThree___northThree" depart="38" />    <trip id="northOne___westOne_39" type="car" from="northOne___intersectionOne" to="intersectionOne___westOne" depart="39" />    <trip id="northThree___northOne_39" type="car" from="northThree___intersectionThree" to="intersectionOne___northOne" depart="39" />    <trip id="westOne___westFour_41" type="car" from="westOne___intersectionOne" to="intersectionThirteen___westFour" depart="41" />    <trip id="eastOne___eastThree_43" type="car" from="eastOne___intersectionFour" to="intersectionTwelve___eastThree" depart="43" />    <trip id="northThree___southTwo_43" type="car" from="northThree___intersectionThree" to="intersectionFourteen___southTwo" depart="43" />    <trip id="eastFour___westThree_44" type="car" from="eastFour___intersectionSixteen" to="intersectionNine___westThree" depart="44" />    <trip id="westOne___southTwo_44" type="car" from="westOne___intersectionOne" to="intersectionFourteen___southTwo" depart="44" />    <trip id="eastTwo___westThree_45" type="car" from="eastTwo___intersectionEight" to="intersectionNine___westThree" depart="45" />    <trip id="eastThree___westFour_46" type="car" from="eastThree___intersectionTwelve" to="intersectionThirteen___westFour" depart="46" />    <trip id="northTwo___southTwo_48" type="car" from="northTwo___intersectionTwo" to="intersectionFourteen___southTwo" depart="48" />    <trip id="westThree___northFour_48" type="car" from="westThree___intersectionNine" to="intersectionFour___northFour" depart="48" />    <trip id="northThree___northFour_50" type="car" from="northThree___intersectionThree" to="intersectionFour___northFour" depart="50" />    <trip id="southThree___westOne_50" type="car" from="southThree___intersectionFifthteen" to="intersectionOne___westOne" depart="50" />    <trip id="southFour___southThree_51" type="car" from="southFour___intersectionSixteen" to="intersectionFifthteen___southThree" depart="51" />    <trip id="eastThree___southOne_52" type="car" from="eastThree___intersectionTwelve" to="intersectionThirteen___southOne" depart="52" />    <trip id="eastTwo___southThree_54" type="car" from="eastTwo___intersectionEight" to="intersectionFifthteen___southThree" depart="54" />    <trip id="northTwo___southTwo_54" type="car" from="northTwo___intersectionTwo" to="intersectionFourteen___southTwo" depart="54" />    <trip id="westThree___eastThree_54" type="car" from="westThree___intersectionNine" to="intersectionTwelve___eastThree" depart="54" />    <trip id="westThree___eastOne_56" type="car" from="westThree___intersectionNine" to="intersectionFour___eastOne" depart="56" />    <trip id="westFour___northOne_57" type="car" from="westFour___intersectionThirteen" to="intersectionOne___northOne" depart="57" />    <trip id="eastFour___westFour_59" type="car" from="eastFour___intersectionSixteen" to="intersectionThirteen___westFour" depart="59" />    <trip id="eastOne___southTwo_59" type="car" from="eastOne___intersectionFour" to="intersectionFourteen___southTwo" depart="59" />    <trip id="westOne___eastTwo_59" type="car" from="westOne___intersectionOne" to="intersectionEight___eastTwo" depart="59" />    <trip id="southOne___northOne_60" type="car" from="southOne___intersectionThirteen" to="intersectionOne___northOne" depart="60" />    <trip id="westTwo___westFour_60" type="car" from="westTwo___intersectionFive" to="intersectionThirteen___westFour" depart="60" />    <trip id="eastTwo___westTwo_61" type="car" from="eastTwo___intersectionEight" to="intersectionFive___westTwo" depart="61" />    <trip id="eastFour___eastOne_62" type="car" from="eastFour___intersectionSixteen" to="intersectionFour___eastOne" depart="62" />    <trip id="northTwo___westFour_63" type="car" from="northTwo___intersectionTwo" to="intersectionThirteen___westFour" depart="63" />    <trip id="westTwo___northOne_64" type="car" from="westTwo___intersectionFive" to="intersectionOne___northOne" depart="64" />    <trip id="southThree___southFour_65" type="car" from="southThree___intersectionFifthteen" to="intersectionSixteen___southFour" depart="65" />    <trip id="eastTwo___southOne_66" type="car" from="eastTwo___intersectionEight" to="intersectionThirteen___southOne" depart="66" />    <trip id="westOne___eastOne_66" type="car" from="westOne___intersectionOne" to="intersectionFour___eastOne" depart="66" />    <trip id="westThree___eastOne_66" type="car" from="westThree___intersectionNine" to="intersectionFour___eastOne" depart="66" />    <trip id="eastFour___northTwo_67" type="car" from="eastFour___intersectionSixteen" to="intersectionTwo___northTwo" depart="67" />    <trip id="eastThree___southFour_67" type="car" from="eastThree___intersectionTwelve" to="intersectionSixteen___southFour" depart="67" />    <trip id="westOne___eastOne_69" type="car" from="westOne___intersectionOne" to="intersectionFour___eastOne" depart="69" />    <trip id="northOne___eastTwo_70" type="car" from="northOne___intersectionOne" to="intersectionEight___eastTwo" depart="70" />    <trip id="westOne___eastThree_70" type="car" from="westOne___intersectionOne" to="intersectionTwelve___eastThree" depart="70" />    <trip id="eastFour___westFour_71" type="car" from="eastFour___intersectionSixteen" to="intersectionThirteen___westFour" depart="71" />    <trip id="westFour___westTwo_71" type="car" from="westFour___intersectionThirteen" to="intersectionFive___westTwo" depart="71" />    <trip id="northOne___westTwo_72" type="car" from="northOne___intersectionOne" to="intersectionFive___westTwo" depart="72" />    <trip id="southTwo___eastTwo_72" type="car" from="southTwo___intersectionFourteen" to="intersectionEight___eastTwo" depart="72" />    <trip id="southOne___northOne_74" type="car" from="southOne___intersectionThirteen" to="intersectionOne___northOne" depart="74" />    <trip id="westThree___eastOne_75" type="car" from="westThree___intersectionNine" to="intersectionFour___eastOne" depart="75" />    <trip id="eastTwo___westTwo_76" type="car" from="eastTwo___intersectionEight" to="intersectionFive___westTwo" depart="76" />    <trip id="westOne___eastTwo_76" type="car" from="westOne___intersectionOne" to="intersectionEight___eastTwo" depart="76" />    <trip id="westThree___southFour_76" type="car" from="westThree___intersectionNine" to="intersectionSixteen___southFour" depart="76" />    <trip id="northFour___eastFour_78" type="car" from="northFour___intersectionFour" to="intersectionSixteen___eastFour" depart="78" />    <trip id="northOne___westFour_79" type="car" from="northOne___intersectionOne" to="intersectionThirteen___westFour" depart="79" />    <trip id="southTwo___northTwo_80" type="car" from="southTwo___intersectionFourteen" to="intersectionTwo___northTwo" depart="80" />    <trip id="eastThree___southOne_82" type="car" from="eastThree___intersectionTwelve" to="intersectionThirteen___southOne" depart="82" />    <trip id="southThree___eastOne_83" type="car" from="southThree___intersectionFifthteen" to="intersectionFour___eastOne" depart="83" />    <trip id="westFour___northTwo_83" type="car" from="westFour___intersectionThirteen" to="intersectionTwo___northTwo" depart="83" />    <trip id="westThree___eastFour_83" type="car" from="westThree___intersectionNine" to="intersectionSixteen___eastFour" depart="83" />    <trip id="eastFour___eastTwo_85" type="car" from="eastFour___intersectionSixteen" to="intersectionEight___eastTwo" depart="85" />    <trip id="westTwo___southTwo_85" type="car" from="westTwo___intersectionFive" to="intersectionFourteen___southTwo" depart="85" />    <trip id="northFour___southFour_86" type="car" from="northFour___intersectionFour" to="intersectionSixteen___southFour" depart="86" />    <trip id="southThree___eastTwo_87" type="car" from="southThree___intersectionFifthteen" to="intersectionEight___eastTwo" depart="87" />    <trip id="westFour___eastThree_88" type="car" from="westFour___intersectionThirteen" to="intersectionTwelve___eastThree" depart="88" />    <trip id="southFour___eastFour_89" type="car" from="southFour___intersectionSixteen" to="intersectionSixteen___eastFour" depart="89" />    <trip id="southOne___westThree_89" type="car" from="southOne___intersectionThirteen" to="intersectionNine___westThree" depart="89" />    <trip id="westTwo___westThree_89" type="car" from="westTwo___intersectionFive" to="intersectionNine___westThree" depart="89" />    <trip id="southThree___northThree_90" type="car" from="southThree___intersectionFifthteen" to="intersectionThree___northThree" depart="90" />    <trip id="eastTwo___eastThree_93" type="car" from="eastTwo___intersectionEight" to="intersectionTwelve___eastThree" depart="93" />    <trip id="southFour___westOne_93" type="car" from="southFour___intersectionSixteen" to="intersectionOne___westOne" depart="93" />    <trip id="southOne___northOne_94" type="car" from="southOne___intersectionThirteen" to="intersectionOne___northOne" depart="94" />    <trip id="northFour___southFour_96" type="car" from="northFour___intersectionFour" to="intersectionSixteen___southFour" depart="96" />    <trip id="southThree___northOne_97" type="car" from="southThree___intersectionFifthteen" to="intersectionOne___northOne" depart="97" />    <trip id="northTwo___westTwo_98" type="car" from="northTwo___intersectionTwo" to="intersectionFive___westTwo" depart="98" />    <trip id="southThree___southTwo_98" type="car" from="southThree___intersectionFifthteen" to="intersectionFourteen___southTwo" depart="98" />    <trip id="northTwo___southOne_100" type="car" from="northTwo___intersectionTwo" to="intersectionThirteen___southOne" depart="100" />    <trip id="southTwo___southThree_100" type="car" from="southTwo___intersectionFourteen" to="intersectionFifthteen___southThree" depart="100" />    <trip id="northTwo___southThree_101" type="car" from="northTwo___intersectionTwo" to="intersectionFifthteen___southThree" depart="101" />    <trip id="northOne___westTwo_102" type="car" from="northOne___intersectionOne" to="intersectionFive___westTwo" depart="102" />    <trip id="southTwo___eastTwo_102" type="car" from="southTwo___intersectionFourteen" to="intersectionEight___eastTwo" depart="102" />    <trip id="southOne___northTwo_103" type="car" from="southOne___intersectionThirteen" to="intersectionTwo___northTwo" depart="103" />    <trip id="southTwo___eastFour_103" type="car" from="southTwo___intersectionFourteen" to="intersectionSixteen___eastFour" depart="103" />    <trip id="eastThree___northThree_104" type="car" from="eastThree___intersectionTwelve" to="intersectionThree___northThree" depart="104" />    <trip id="westOne___northTwo_106" type="car" from="westOne___intersectionOne" to="intersectionTwo___northTwo" depart="106" />    <trip id="northTwo___southOne_108" type="car" from="northTwo___intersectionTwo" to="intersectionThirteen___southOne" depart="108" />    <trip id="westTwo___southThree_108" type="car" from="westTwo___intersectionFive" to="intersectionFifthteen___southThree" depart="108" />    <trip id="northOne___westOne_109" type="car" from="northOne___intersectionOne" to="intersectionOne___westOne" depart="109" />    <trip id="northFour___southTwo_110" type="car" from="northFour___intersectionFour" to="intersectionFourteen___southTwo" depart="110" />    <trip id="northFour___westThree_111" type="car" from="northFour___intersectionFour" to="intersectionNine___westThree" depart="111" />    <trip id="northThree___eastFour_111" type="car" from="northThree___intersectionThree" to="intersectionSixteen___eastFour" depart="111" />    <trip id="northTwo___westTwo_111" type="car" from="northTwo___intersectionTwo" to="intersectionFive___westTwo" depart="111" />    <trip id="northFour___eastFour_112" type="car" from="northFour___intersectionFour" to="intersectionSixteen___eastFour" depart="112" />    <trip id="westTwo___westThree_113" type="car" from="westTwo___intersectionFive" to="intersectionNine___westThree" depart="113" />    <trip id="northThree___northOne_114" type="car" from="northThree___intersectionThree" to="intersectionOne___northOne" depart="114" />    <trip id="northTwo___northThree_114" type="car" from="northTwo___intersectionTwo" to="intersectionThree___northThree" depart="114" />    <trip id="southFour___southThree_114" type="car" from="southFour___intersectionSixteen" to="intersectionFifthteen___southThree" depart="114" />    <trip id="northTwo___eastThree_116" type="car" from="northTwo___intersectionTwo" to="intersectionTwelve___eastThree" depart="116" />    <trip id="westTwo___westThree_117" type="car" from="westTwo___intersectionFive" to="intersectionNine___westThree" depart="117" />    <trip id="southFour___westOne_118" type="car" from="southFour___intersectionSixteen" to="intersectionOne___westOne" depart="118" />    <trip id="westFour___eastThree_119" type="car" from="westFour___intersectionThirteen" to="intersectionTwelve___eastThree" depart="119" />    <trip id="westThree___southFour_121" type="car" from="westThree___intersectionNine" to="intersectionSixteen___southFour" depart="121" />    <trip id="northThree___southOne_122" type="car" from="northThree___intersectionThree" to="intersectionThirteen___southOne" depart="122" />    <trip id="eastTwo___northOne_123" type="car" from="eastTwo___intersectionEight" to="intersectionOne___northOne" depart="123" />    <trip id="northTwo___westTwo_123" type="car" from="northTwo___intersectionTwo" to="intersectionFive___westTwo" depart="123" />    <trip id="westThree___northTwo_123" type="car" from="westThree___intersectionNine" to="intersectionTwo___northTwo" depart="123" />    <trip id="southTwo___westThree_124" type="car" from="southTwo___intersectionFourteen" to="intersectionNine___westThree" depart="124" />    <trip id="eastFour___westOne_126" type="car" from="eastFour___intersectionSixteen" to="intersectionOne___westOne" depart="126" />    <trip id="northTwo___eastOne_126" type="car" from="northTwo___intersectionTwo" to="intersectionFour___eastOne" depart="126" />    <trip id="eastThree___northThree_127" type="car" from="eastThree___intersectionTwelve" to="intersectionThree___northThree" depart="127" />    <trip id="southOne___eastOne_128" type="car" from="southOne___intersectionThirteen" to="intersectionFour___eastOne" depart="128" />    <trip id="westThree___westTwo_130" type="car" from="westThree___intersectionNine" to="intersectionFive___westTwo" depart="130" />    <trip id="northFour___northTwo_132" type="car" from="northFour___intersectionFour" to="intersectionTwo___northTwo" depart="132" />    <trip id="southThree___westFour_132" type="car" from="southThree___intersectionFifthteen" to="intersectionThirteen___westFour" depart="132" />    <trip id="westFour___southTwo_132" type="car" from="westFour___intersectionThirteen" to="intersectionFourteen___southTwo" depart="132" />    <trip id="eastFour___southFour_133" type="car" from="eastFour___intersectionSixteen" to="intersectionSixteen___southFour" depart="133" />    <trip id="southFour___eastFour_133" type="car" from="southFour___intersectionSixteen" to="intersectionSixteen___eastFour" depart="133" />    <trip id="southThree___eastOne_133" type="car" from="southThree___intersectionFifthteen" to="intersectionFour___eastOne" depart="133" />    <trip id="westThree___northOne_133" type="car" from="westThree___intersectionNine" to="intersectionOne___northOne" depart="133" />    <trip id="northFour___southOne_134" type="car" from="northFour___intersectionFour" to="intersectionThirteen___southOne" depart="134" />    <trip id="southFour___eastTwo_135" type="car" from="southFour___intersectionSixteen" to="intersectionEight___eastTwo" depart="135" />    <trip id="westThree___southThree_135" type="car" from="westThree___intersectionNine" to="intersectionFifthteen___southThree" depart="135" />    <trip id="westOne___southOne_136" type="car" from="westOne___intersectionOne" to="intersectionThirteen___southOne" depart="136" />    <trip id="southThree___westOne_137" type="car" from="southThree___intersectionFifthteen" to="intersectionOne___westOne" depart="137" />    <trip id="northOne___westFour_139" type="car" from="northOne___intersectionOne" to="intersectionThirteen___westFour" depart="139" />    <trip id="northTwo___southOne_139" type="car" from="northTwo___intersectionTwo" to="intersectionThirteen___southOne" depart="139" />    <trip id="southThree___northOne_139" type="car" from="southThree___intersectionFifthteen" to="intersectionOne___northOne" depart="139" />    <trip id="westOne___eastFour_140" type="car" from="westOne___intersectionOne" to="intersectionSixteen___eastFour" depart="140" />    <trip id="southTwo___northOne_142" type="car" from="southTwo___intersectionFourteen" to="intersectionOne___northOne" depart="142" />    <trip id="eastTwo___northFour_143" type="car" from="eastTwo___intersectionEight" to="intersectionFour___northFour" depart="143" />    <trip id="southFour___eastTwo_143" type="car" from="southFour___intersectionSixteen" to="intersectionEight___eastTwo" depart="143" />    <trip id="northTwo___northThree_144" type="car" from="northTwo___intersectionTwo" to="intersectionThree___northThree" depart="144" />    <trip id="northThree___northTwo_145" type="car" from="northThree___intersectionThree" to="intersectionTwo___northTwo" depart="145" />    <trip id="southTwo___eastTwo_145" type="car" from="southTwo___intersectionFourteen" to="intersectionEight___eastTwo" depart="145" />    <trip id="eastOne___westOne_146" type="car" from="eastOne___intersectionFour" to="intersectionOne___westOne" depart="146" />    <trip id="southThree___northFour_148" type="car" from="southThree___intersectionFifthteen" to="intersectionFour___northFour" depart="148" />    <trip id="westThree___southTwo_148" type="car" from="westThree___intersectionNine" to="intersectionFourteen___southTwo" depart="148" />    <trip id="southFour___westTwo_150" type="car" from="southFour___intersectionSixteen" to="intersectionFive___westTwo" depart="150" />    <trip id="northOne___westThree_151" type="car" from="northOne___intersectionOne" to="intersectionNine___westThree" depart="151" />    <trip id="eastThree___northFour_153" type="car" from="eastThree___intersectionTwelve" to="intersectionFour___northFour" depart="153" />    <trip id="eastTwo___southTwo_154" type="car" from="eastTwo___intersectionEight" to="intersectionFourteen___southTwo" depart="154" />    <trip id="westTwo___westThree_155" type="car" from="westTwo___intersectionFive" to="intersectionNine___westThree" depart="155" />    <trip id="westThree___westOne_157" type="car" from="westThree___intersectionNine" to="intersectionOne___westOne" depart="157" />    <trip id="northFour___eastOne_158" type="car" from="northFour___intersectionFour" to="intersectionFour___eastOne" depart="158" />    <trip id="westFour___eastFour_158" type="car" from="westFour___intersectionThirteen" to="intersectionSixteen___eastFour" depart="158" />    <trip id="westTwo___southThree_159" type="car" from="westTwo___intersectionFive" to="intersectionFifthteen___southThree" depart="159" />    <trip id="northFour___eastOne_162" type="car" from="northFour___intersectionFour" to="intersectionFour___eastOne" depart="162" />    <trip id="westThree___northOne_162" type="car" from="westThree___intersectionNine" to="intersectionOne___northOne" depart="162" />    <trip id="westTwo___southFour_162" type="car" from="westTwo___intersectionFive" to="intersectionSixteen___southFour" depart="162" />    <trip id="eastTwo___westFour_163" type="car" from="eastTwo___intersectionEight" to="intersectionThirteen___westFour" depart="163" />    <trip id="southFour___westFour_163" type="car" from="southFour___intersectionSixteen" to="intersectionThirteen___westFour" depart="163" />    <trip id="northFour___southFour_165" type="car" from="northFour___intersectionFour" to="intersectionSixteen___southFour" depart="165" />    <trip id="southOne___southThree_165" type="car" from="southOne___intersectionThirteen" to="intersectionFifthteen___southThree" depart="165" />    <trip id="westOne___northOne_165" type="car" from="westOne___intersectionOne" to="intersectionOne___northOne" depart="165" />    <trip id="northThree___eastTwo_166" type="car" from="northThree___intersectionThree" to="intersectionEight___eastTwo" depart="166" />    <trip id="eastThree___eastTwo_169" type="car" from="eastThree___intersectionTwelve" to="intersectionEight___eastTwo" depart="169" />    <trip id="northOne___northFour_170" type="car" from="northOne___intersectionOne" to="intersectionFour___northFour" depart="170" />    <trip id="southOne___southTwo_171" type="car" from="southOne___intersectionThirteen" to="intersectionFourteen___southTwo" depart="171" />    <trip id="southTwo___northOne_172" type="car" from="southTwo___intersectionFourteen" to="intersectionOne___northOne" depart="172" />    <trip id="eastOne___westTwo_173" type="car" from="eastOne___intersectionFour" to="intersectionFive___westTwo" depart="173" />    <trip id="eastTwo___northTwo_174" type="car" from="eastTwo___intersectionEight" to="intersectionTwo___northTwo" depart="174" />    <trip id="eastOne___westTwo_177" type="car" from="eastOne___intersectionFour" to="intersectionFive___westTwo" depart="177" />    <trip id="northTwo___westFour_179" type="car" from="northTwo___intersectionTwo" to="intersectionThirteen___westFour" depart="179" />    <trip id="southOne___eastOne_179" type="car" from="southOne___intersectionThirteen" to="intersectionFour___eastOne" depart="179" />    <trip id="northThree___westTwo_184" type="car" from="northThree___intersectionThree" to="intersectionFive___westTwo" depart="184" />    <trip id="northTwo___northThree_184" type="car" from="northTwo___intersectionTwo" to="intersectionThree___northThree" depart="184" />    <trip id="northOne___westTwo_185" type="car" from="northOne___intersectionOne" to="intersectionFive___westTwo" depart="185" />    <trip id="westOne___northOne_186" type="car" from="westOne___intersectionOne" to="intersectionOne___northOne" depart="186" />    <trip id="southThree___eastOne_188" type="car" from="southThree___intersectionFifthteen" to="intersectionFour___eastOne" depart="188" />    <trip id="westOne___eastOne_189" type="car" from="westOne___intersectionOne" to="intersectionFour___eastOne" depart="189" />    <trip id="northOne___southTwo_190" type="car" from="northOne___intersectionOne" to="intersectionFourteen___southTwo" depart="190" />    <trip id="westOne___northThree_190" type="car" from="westOne___intersectionOne" to="intersectionThree___northThree" depart="190" />    <trip id="westTwo___northFour_190" type="car" from="westTwo___intersectionFive" to="intersectionFour___northFour" depart="190" />    <trip id="eastThree___northThree_191" type="car" from="eastThree___intersectionTwelve" to="intersectionThree___northThree" depart="191" />    <trip id="northOne___eastOne_191" type="car" from="northOne___intersectionOne" to="intersectionFour___eastOne" depart="191" />    <trip id="westTwo___eastFour_191" type="car" from="westTwo___intersectionFive" to="intersectionSixteen___eastFour" depart="191" />    <trip id="southThree___northTwo_194" type="car" from="southThree___intersectionFifthteen" to="intersectionTwo___northTwo" depart="194" />    <trip id="southOne___northThree_195" type="car" from="southOne___intersectionThirteen" to="intersectionThree___northThree" depart="195" />    <trip id="westOne___northOne_195" type="car" from="westOne___intersectionOne" to="intersectionOne___northOne" depart="195" />    <trip id="southOne___westTwo_196" type="car" from="southOne___intersectionThirteen" to="intersectionFive___westTwo" depart="196" />    <trip id="southThree___northFour_197" type="car" from="southThree___intersectionFifthteen" to="intersectionFour___northFour" depart="197" />    <trip id="eastT