
        <routes>
            <vType id="car" accel="0.8" decel="4.5" sigma="0.5" length="5" minGap="2.5" maxSpeed="15" guiShape="passenger"/>
            <trip id="southTwo___eastThree_1" type="car" from="southTwo___intersectionFourteen" to="intersectionTwelve___eastThree" depart="1" />    <trip id="westOne___northThree_1" type="car" from="westOne___intersectionOne" to="intersectionThree___northThree" depart="1" />    <trip id="southOne___northThree_3" type="car" from="southOne___intersectionThirteen" to="intersectionThree___northThree" depart="3" />    <trip id="northOne___northTwo_7" type="car" from="northOne___intersectionOne" to="intersectionTwo___northTwo" depart="7" />    <trip id="northThree___northOne_8" type="car" from="northThree___intersectionThree" to="intersectionOne___northOne" depart="8" />    <trip id="northFour___eastTwo_10" type="car" from="northFour___intersectionFour" to="intersectionEight___eastTwo" depart="10" />    <trip id="southFour___southOne_10" type="car" from="southFour___intersectionSixteen" to="intersectionThirteen___southOne" depart="10" />    <trip id="southThree___westTwo_11" type="car" from="southThree___intersectionFifthteen" to="intersectionFive___westTwo" depart="11" />    <trip id="eastFour___westFour_12" type="car" from="eastFour___intersectionSixteen" to="intersectionThirteen___westFour" depart="12" />    <trip id="westTwo___southOne_12" type="car" from="westTwo___intersectionFive" to="intersectionThirteen___southOne" depart="12" />    <trip id="southOne___eastTwo_17" type="car" from="southOne___intersectionThirteen" to="intersectionEight___eastTwo" depart="17" />    <trip id="eastFour___northOne_18" type="car" from="eastFour___intersectionSixteen" to="intersectionOne___northOne" depart="18" />    <trip id="northOne___westFour_20" type="car" from="northOne___intersectionOne" to="intersectionThirteen___westFour" depart="20" />    <trip id="southOne___westFour_20" type="car" from="southOne___intersectionThirteen" to="intersectionThirteen___westFour" depart="20" />    <trip id="eastFour___westFour_21" type="car" from="eastFour___intersectionSixteen" to="intersectionThirteen___westFour" depart="21" />    <trip id="northOne___northThree_23" type="car" from="northOne___intersectionOne" to="intersectionThree___northThree" depart="23" />    <trip id="eastFour___eastOne_25" type="car" from="eastFour___intersectionSixteen" to="intersectionFour___eastOne" depart="25" />    <trip id="northThree___southThree_26" type="car" from="northThree___intersectionThree" to="intersectionFifthteen___southThree" depart="26" />    <trip id="eastOne___northFour_31" type="car" from="eastOne___intersectionFour" to="intersectionFour___northFour" depart="31" />    <trip id="eastThree___eastTwo_31" type="car" from="eastThree___intersectionTwelve" to="intersectionEight___eastTwo" depart="31" />    <trip id="eastOne___westFour_32" type="car" from="eastOne___intersectionFour" to="intersectionThirteen___westFour" depart="32" />    <trip id="southOne___eastThree_34" type="car" from="southOne___intersectionThirteen" to="intersectionTwelve___eastThree" depart="34" />    <trip id="northOne___eastOne_35" type="car" from="northOne___intersectionOne" to="intersectionFour___eastOne" depart="35" />    <trip id="southFour___eastOne_36" type="car" from="southFour___intersectionSixteen" to="intersectionFour___eastOne" depart="36" />    <trip id="westFour___westThree_36" type="car" from="westFour___intersectionThirteen" to="intersectionNine___westThree" depart="36" />    <trip id="southOne___eastThree_37" type="car" from="southOne___intersectionThirteen" to="intersectionTwelve___eastThree" depart="37" />    <trip id="southTwo___northFour_37" type="car" from="southTwo___intersectionFourteen" to="intersectionFour___northFour" depart="37" />    <trip id="westFour___northFour_38" type="car" from="westFour___intersectionThirteen" to="intersectionFour___northFour" depart="38" />    <trip id="westTwo___westThree_38" type="car" from="westTwo___intersectionFive" to="intersectionNine___westThree" depart="38" />    <trip id="eastThree___eastOne_40" type="car" from="eastThree___intersectionTwelve" to="intersectionFour___eastOne" depart="40" />    <trip id="eastOne___southTwo_42" type="car" from="eastOne___intersectionFour" to="intersectionFourteen___southTwo" depart="42" />    <trip id="northFour___westTwo_45" type="car" from="northFour___intersectionFour" to="intersectionFive___westTwo" depart="45" />    <trip id="westTwo___northTwo_46" type="car" from="westTwo___intersectionFive" to="intersectionTwo___northTwo" depart="46" />    <trip id="westOne___westTwo_52" type="car" from="westOne___intersectionOne" to="intersectionFive___westTwo" depart="52" />    <trip id="northTwo___westFour_53" type="car" from="northTwo___intersectionTwo" to="intersectionThirteen___westFour" depart="53" />    <trip id="northOne___westFour_54" type="car" from="northOne___intersectionOne" to="intersectionThirteen___westFour" depart="54" />    <trip id="westTwo___eastFour_54" type="car" from="westTwo___intersectionFive" to="intersectionSixteen___eastFour" depart="54" />    <trip id="southTwo___eastOne_55" type="car" from="southTwo___intersectionFourteen" to="intersectionFour___eastOne" depart="55" />    <trip id="southTwo___westFour_56" type="car" from="southTwo___intersectionFourteen" to="intersectionThirteen___westFour" depart="56" />    <trip id="westThree___westTwo_56" type="car" from="westThree___intersectionNine" to="intersectionFive___westTwo" depart="56" />    <trip id="westFour___westOne_57" type="car" from="westFour___intersectionThirteen" to="intersectionOne___westOne" depart="57" />    <trip id="northFour___southTwo_59" type="car" from="northFour___intersectionFour" to="intersectionFourteen___southTwo" depart="59" />    <trip id="eastOne___northTwo_60" type="car" from="eastOne___intersectionFour" to="intersectionTwo___northTwo" depart="60" />    <trip id="eastOne___southThree_61" type="car" from="eastOne___intersectionFour" to="intersectionFifthteen___southThree" depart="61" />    <trip id="southOne___southThree_61" type="car" from="southOne___intersectionThirteen" to="intersectionFifthteen___southThree" depart="61" />    <trip id="southTwo___southFour_61" type="car" from="southTwo___intersectionFourteen" to="intersectionSixteen___southFour" depart="61" />    <trip id="southTwo___southFour_64" type="car" from="southTwo___intersectionFourteen" to="intersectionSixteen___southFour" depart="64" />    <trip id="eastFour___northOne_66" type="car" from="eastFour___intersectionSixteen" to="intersectionOne___northOne" depart="66" />    <trip id="northTwo___eastFour_66" type="car" from="northTwo___intersectionTwo" to="intersectionSixteen___eastFour" depart="66" />    <trip id="southOne___northOne_66" type="car" from="southOne___intersectionThirteen" to="intersectionOne___northOne" depart="66" />    <trip id="southTwo___northFour_66" type="car" from="southTwo___intersectionFourteen" to="intersectionFour___northFour" depart="66" />    <trip id="eastThree___eastTwo_67" type="car" from="eastThree___intersectionTwelve" to="intersectionEight___eastTwo" depart="67" />    <trip id="eastTwo___northOne_67" type="car" from="eastTwo___intersectionEight" to="intersectionOne___northOne" depart="67" />    <trip id="southTwo___westTwo_67" type="car" from="southTwo___intersectionFourteen" to="intersectionFive___westTwo" depart="67" />    <trip id="southTwo___westFour_69" type="car" from="southTwo___intersectionFourteen" to="intersectionThirteen___westFour" depart="69" />    <trip id="eastOne___northOne_71" type="car" from="eastOne___intersectionFour" to="intersectionOne___northOne" depart="71" />    <trip id="northTwo___eastTwo_71" type="car" from="northTwo___intersectionTwo" to="intersectionEight___eastTwo" depart="71" />    <trip id="southFour___eastThree_72" type="car" from="southFour___intersectionSixteen" to="intersectionTwelve___eastThree" depart="72" />    <trip id="southOne___eastThree_72" type="car" from="southOne___intersectionThirteen" to="intersectionTwelve___eastThree" depart="72" />    <trip id="southOne___eastTwo_73" type="car" from="southOne___intersectionThirteen" to="intersectionEight___eastTwo" depart="73" />    <trip id="southTwo___westThree_75" type="car" from="southTwo___intersectionFourteen" to="intersectionNine___westThree" depart="75" />    <trip id="eastThree___northOne_76" type="car" from="eastThree___intersectionTwelve" to="intersectionOne___northOne" depart="76" />    <trip id="northFour___eastTwo_78" type="car" from="northFour___intersectionFour" to="intersectionEight___eastTwo" depart="78" />    <trip id="eastFour___eastThree_79" type="car" from="eastFour___intersectionSixteen" to="intersectionTwelve___eastThree" depart="79" />    <trip id="northFour___westTwo_81" type="car" from="northFour___intersectionFour" to="intersectionFive___westTwo" depart="81" />    <trip id="southOne___northTwo_84" type="car" from="southOne___intersectionThirteen" to="intersectionTwo___northTwo" depart="84" />    <trip id="northTwo___westThree_85" type="car" from="northTwo___intersectionTwo" to="intersectionNine___westThree" depart="85" />    <trip id="westOne___eastTwo_85" type="car" from="westOne___intersectionOne" to="intersectionEight___eastTwo" depart="85" />    <trip id="southOne___westFour_86" type="car" from="southOne___intersectionThirteen" to="intersectionThirteen___westFour" depart="86" />    <trip id="westTwo___northThree_86" type="car" from="westTwo___intersectionFive" to="intersectionThree___northThree" depart="86" />    <trip id="westTwo___westOne_87" type="car" from="westTwo___intersectionFive" to="intersectionOne___westOne" depart="87" />    <trip id="southOne___northFour_89" type="car" from="southOne___intersectionThirteen" to="intersectionFour___northFour" depart="89" />    <trip id="southFour___westThree_90" type="car" from="southFour___intersectionSixteen" to="intersectionNine___westThree" depart="90" />    <trip id="southOne___northThree_91" type="car" from="southOne___intersectionThirteen" to="intersectionThree___northThree" depart="91" />    <trip id="westFour___eastOne_91" type="car" from="westFour___intersectionThirteen" to="intersectionFour___eastOne" depart="91" />    <trip id="northOne___westTwo_93" type="car" from="northOne___intersectionOne" to="intersectionFive___westTwo" depart="93" />    <trip id="northFour___southTwo_94" type="car" from="northFour___intersectionFour" to="intersectionFourteen___southTwo" depart="94" />    <trip id="westFour___eastTwo_95" type="car" from="westFour___intersectionThirteen" to="intersectionEight___eastTwo" depart="95" />    <trip id="southOne___southTwo_96" type="car" from="southOne___intersectionThirteen" to="intersectionFourteen___southTwo" depart="96" />    <trip id="westOne___northTwo_96" type="car" from="westOne___intersectionOne" to="intersectionTwo___northTwo" depart="96" />    <trip id="westTwo___northTwo_98" type="car" from="westTwo___intersectionFive" to="intersectionTwo___northTwo" depart="98" />    <trip id="eastThree___southTwo_101" type="car" from="eastThree___intersectionTwelve" to="intersectionFourteen___southTwo" depart="101" />    <trip id="eastOne___southThree_104" type="car" from="eastOne___intersectionFour" to="intersectionFifthteen___southThree" depart="104" />    <trip id="eastOne___westFour_107" type="car" from="eastOne___intersectionFour" to="intersectionThirteen___westFour" depart="107" />    <trip id="eastThree___northOne_107" type="car" from="eastThree___intersectionTwelve" to="intersectionOne___northOne" depart="107" />    <trip id="northOne___eastFour_107" type="car" from="northOne___intersectionOne" to="intersectionSixteen___eastFour" depart="107" />    <trip id="southTwo___westFour_108" type="car" from="southTwo___intersectionFourteen" to="intersectionThirteen___westFour" depart="108" />    <trip id="eastFour___westOne_109" type="car" from="eastFour___intersectionSixteen" to="intersectionOne___westOne" depart="109" />    <trip id="eastThree___southOne_111" type="car" from="eastThree___intersectionTwelve" to="intersectionThirteen___southOne" depart="111" />    <trip id="westFour___southFour_111" type="car" from="westFour___intersectionThirteen" to="intersectionSixteen___southFour" depart="111" />    <trip id="eastThree___eastOne_116" type="car" from="eastThree___intersectionTwelve" to="intersectionFour___eastOne" depart="116" />    <trip id="northOne___westTwo_116" type="car" from="northOne___intersectionOne" to="intersectionFive___westTwo" depart="116" />    <trip id="northFour___eastTwo_118" type="car" from="northFour___intersectionFour" to="intersectionEight___eastTwo" depart="118" />    <trip id="westThree___westTwo_119" type="car" from="westThree___intersectionNine" to="intersectionFive___westTwo" depart="119" />    <trip id="westOne___eastOne_120" type="car" from="westOne___intersectionOne" to="intersectionFour___eastOne" depart="120" />    <trip id="northOne___eastTwo_121" type="car" from="northOne___intersectionOne" to="intersectionEight___eastTwo" depart="121" />    <trip id="westFour___westTwo_123" type="car" from="westFour___intersectionThirteen" to="intersectionFive___westTwo" depart="123" />    <trip id="northFour___eastOne_124" type="car" from="northFour___intersectionFour" to="intersectionFour___eastOne" depart="124" />    <trip id="northFour___northTwo_128" type="car" from="northFour___intersectionFour" to="intersectionTwo___northTwo" depart="128" />    <trip id="eastOne___eastTwo_129" type="car" from="eastOne___intersectionFour" to="intersectionEight___eastTwo" depart="129" />    <trip id="eastOne___southFour_131" type="car" from="eastOne___intersectionFour" to="intersectionSixteen___southFour" depart="131" />    <trip id="northFour___eastFour_132" type="car" from="northFour___intersectionFour" to="intersectionSixteen___eastFour" depart="132" />    <trip id="southFour___southThree_132" type="car" from="southFour___intersectionSixteen" to="intersectionFifthteen___southThree" depart="132" />    <trip id="westOne___eastFour_135" type="car" from="westOne___intersectionOne" to="intersectionSixteen___eastFour" depart="135" />    <trip id="northTwo___westTwo_136" type="car" from="northTwo___intersectionTwo" to="intersectionFive___westTwo" depart="136" />    <trip id="southFour___northOne_136" type="car" from="southFour___intersectionSixteen" to="intersectionOne___northOne" depart="136" />    <trip id="eastThree___eastOne_137" type="car" from="eastThree___intersectionTwelve" to="intersectionFour___eastOne" depart="137" />    <trip id="southFour___westThree_138" type="car" from="southFour___intersectionSixteen" to="intersectionNine___westThree" depart="138" />    <trip id="southTwo___eastOne_140" type="car" from="southTwo___intersectionFourteen" to="intersectionFour___eastOne" depart="140" />    <trip id="northTwo___southThree_141" type="car" from="northTwo___intersectionTwo" to="intersectionFifthteen___southThree" depart="141" />    <trip id="southTwo___eastOne_142" type="car" from="southTwo___intersectionFourteen" to="intersectionFour___eastOne" depart="142" />    <trip id="southTwo___southFour_145" type="car" from="southTwo___intersectionFourteen" to="intersectionSixteen___southFour" depart="145" />    <trip id="eastOne___southFour_146" type="car" from="eastOne___intersectionFour" to="intersectionSixteen___southFour" depart="146" />    <trip id="eastThree___eastOne_146" type="car" from="eastThree___intersectionTwelve" to="intersectionFour___eastOne" depart="146" />    <trip id="southOne___southFour_146" type="car" from="southOne___intersectionThirteen" to="intersectionSixteen___southFour" depart="146" />    <trip id="southThree___westFour_147" type="car" from="southThree___intersectionFifthteen" to="intersectionThirteen___westFour" depart="147" />    <trip id="eastOne___southOne_148" type="car" from="eastOne___intersectionFour" to="intersectionThirteen___southOne" depart="148" />    <trip id="eastFour___westThree_149" type="car" from="eastFour___intersectionSixteen" to="intersectionNine___westThree" depart="149" />    <trip id="westOne___southFour_150" type="car" from="westOne___intersectionOne" to="intersectionSixteen___southFour" depart="150" />    <trip id="eastFour___southThree_151" type="car" from="eastFour___intersectionSixteen" to="intersectionFifthteen___southThree" depart="151" />    <trip id="eastFour___eastTwo_155" type="car" from="eastFour___intersectionSixteen" to="intersectionEight___eastTwo" depart="155" />    <trip id="westTwo___westFour_155" type="car" from="westTwo___intersectionFive" to="intersectionThirteen___westFour" depart="155" />    <trip id="eastFour___northTwo_156" type="car" from="eastFour___intersectionSixteen" to="intersectionTwo___northTwo" depart="156" />    <trip id="southFour___northTwo_157" type="car" from="southFour___intersectionSixteen" to="intersectionTwo___northTwo" depart="157" />    <trip id="eastFour___southThree_158" type="car" from="eastFour___intersectionSixteen" to="intersectionFifthteen___southThree" depart="158" />    <trip id="eastThree___eastTwo_159" type="car" from="eastThree___intersectionTwelve" to="intersectionEight___eastTwo" depart="159" />    <trip id="eastOne___westTwo_161" type="car" from="eastOne___intersectionFour" to="intersectionFive___westTwo" depart="161" />    <trip id="westFour___eastFour_163" type="car" from="westFour___intersectionThirteen" to="intersectionSixteen___eastFour" depart="163" />    <trip id="eastThree___westFour_165" type="car" from="eastThree___intersectionTwelve" to="intersectionThirteen___westFour" depart="165" />    <trip id="northFour___southThree_165" type="car" from="northFour___intersectionFour" to="intersectionFifthteen___southThree" depart="165" />    <trip id="westTwo___eastOne_165" type="car" from="westTwo___intersectionFive" to="intersectionFour___eastOne" depart="165" />    <trip id="southFour___southThree_167" type="car" from="southFour___intersectionSixteen" to="intersectionFifthteen___southThree" depart="167" />    <trip id="eastOne___northThree_168" type="car" from="eastOne___intersectionFour" to="intersectionThree___northThree" depart="168" />    <trip id="northFour___northOne_172" type="car" from="northFour___intersectionFour" to="intersectionOne___northOne" depart="172" />    <trip id="eastTwo___eastOne_176" type="car" from="eastTwo___intersectionEight" to="intersectionFour___eastOne" depart="176" />    <trip id="southOne___northFour_177" type="car" from="southOne___intersectionThirteen" to="intersectionFour___northFour" depart="177" />    <trip id="westOne___northTwo_177" type="car" from="westOne___intersectionOne" to="intersectionTwo___northTwo" depart="177" />    <trip id="northOne___southFour_178" type="car" from="northOne___intersectionOne" to="intersectionSixteen___southFour" depart="178" />    <trip id="southFour___northFour_178" type="car" from="southFour___intersectionSixteen" to="intersectionFour___northFour" depart="178" />    <trip id="eastTwo___eastThree_179" type="car" from="eastTwo___intersectionEight" to="intersectionTwelve___eastThree" depart="179" />    <trip id="northOne___northFour_179" type="car" from="northOne___intersectionOne" to="intersectionFour___northFour" depart="179" />    <trip id="northThree___eastTwo_179" type="car" from="northThree___intersectionThree" to="intersectionEight___eastTwo" depart="179" />    <trip id="westOne___southFour_179" type="car" from="westOne___intersectionOne" to="intersectionSixteen___southFour" depart="179" />    <trip id="southOne___westOne_181" type="car" from="southOne___intersectionThirteen" to="intersectionOne___westOne" depart="181" />    <trip id="westTwo___westOne_181" type="car" from="westTwo___intersectionFive" to="intersectionOne___westOne" depart="181" />    <trip id="southThree___eastOne_183" type="car" from="southThree___intersectionFifthteen" to="intersectionFour___eastOne" depart="183" />    <trip id="westOne___southFour_183" type="car" from="westOne___intersectionOne" to="intersectionSixteen___southFour" depart="183" />    <trip id="southOne___southThree_184" type="car" from="southOne___intersectionThirteen" to="intersectionFifthteen___southThree" depart="184" />    <trip id="eastTwo___southOne_185" type="car" from="eastTwo___intersectionEight" to="intersectionThirteen___southOne" depart="185" />    <trip id="eastThree___westThree_186" type="car" from="eastThree___intersectionTwelve" to="intersectionNine___westThree" depart="186" />    <trip id="northFour___westFour_186" type="car" from="northFour___intersectionFour" to="intersectionThirteen___westFour" depart="186" />    <trip id="northTwo___southThree_186" type="car" from="northTwo___intersectionTwo" to="intersectionFifthteen___southThree" depart="186" />    <trip id="westThree___southFour_187" type="car" from="westThree___intersectionNine" to="intersectionSixteen___southFour" depart="187" />    <trip id="eastTwo___northOne_189" type="car" from="eastTwo___intersectionEight" to="intersectionOne___northOne" depart="189" />    <trip id="southThree___southOne_189" type="car" from="southThree___intersectionFifthteen" to="intersectionThirteen___southOne" depart="189" />    <trip id="northTwo___southOne_190" type="car" from="northTwo___intersectionTwo" to="intersectionThirteen___southOne" depart="190" />    <trip id="southThree___southFour_190" type="car" from="southThree___intersectionFifthteen" to="intersectionSixteen___southFour" depart="190" />    <trip id="eastTwo___southTwo_194" type="car" from="eastTwo___intersectionEight" to="intersectionFourteen___southTwo" depart="194" />    <trip id="southTwo___eastTwo_194" type="car" from="southTwo___intersectionFourteen" to="intersectionEight___eastTwo" depart="194" />    <trip id="northTwo___westFour_195" type="car" from="northTwo___intersectionTwo" to="intersectionThirteen___westFour" depart="195" />    <trip id="southThree___eastFour_195" type="car" from="southThree___intersectionFifthteen" to="intersectionSixteen___eastFour" depart="195" />    <trip id="westFour___eastTwo_195" type="car" from="westFour___intersectionThirteen" to="intersectionEight___eastTwo" depart="195" />    <trip id="northThree___eastFour_196" type="car" from="northThree___intersectionThree" to="intersectionSixteen___eastFour" depart="196" />    <trip id="eastOne___westOne_197" type="car" from="eastOne___intersectionFour" to="intersectionOne___westOne" depart="197" />    <trip id="westFour___westThree_198" type="car" from="westFour___intersectionThirteen" to="intersectionNine___westThree" depart="198" />    <trip id="westThree___westTwo_198" type="car" from="westThree___intersectionNine" to="intersectionFive___westTwo" depart="198" />    <trip id="eastOne___eastTwo_199" type="car" from="eastOne___intersectionFour" to="intersectionEight___eastTwo" depart="199" />    <trip id="eastTwo___southOne_199" type="car" from="eastTwo___intersectionEight" to="intersectionThirteen___southOne" depart="199" />    <trip id="westThree___northFour_199" type="car" from="westThree___intersectionNine" to="intersectionFour___northFour" depart="199" />    <trip id="northOne___northFour_200" type="car" from="northOne___intersectionOne" to="intersectionFour___northFour" depart="200" />    <trip id="northTwo___westOne_200" type="car" from="northTwo___intersectionTwo" to="intersectionOne___westOne" depart="200" />    <trip id="westFour___southThree_201" type="car" from="westFour___intersectionThirteen" to="intersectionFifthteen___southThree" depart="201" />    <trip id="westThree___eastOne_201" type="car" from="westThree___intersectionNine" to="intersectionFour___eastOne" depart="201" />    <trip id="southTwo___northOne_202" type="car" from="southTwo___intersectionFourteen" to="intersectionOne___northOne" depart="202" />    <trip id="northTwo___eastThree_203" type="car" from="northTwo___intersectionTwo" to="intersectionTwelve___eastThree" depart="203" />    <trip id="northOne___northThree_205" type="car" from="northOne___intersectionOne" to="intersectionThree___northThree" depart="205" />    <trip id="northOne___eastFour_206" type="car" from="northOne___intersectionOne" to="intersectionSixteen___eastFour" depart="206" />    <trip id="eastTwo___southTwo_208" type="car" from="eastTwo___intersectionEight" to="intersectionFourteen___southTwo" depart="208" />    <trip id="westOne___westTwo_208" type="car" from="westOne___intersectionOne" to="intersectionFive___westTwo" depart="208" />    <trip id="westTwo___eastThree_209" type="car" from="westTwo___intersectionFive" to="intersectionTwelve___eastThree" depart="209" />    <trip id="northFour___southTwo_211" type="car" from="northFour___intersectionFour" to="intersectionFourteen___southTwo" depart="211" />    <trip id="eastFour___westOne_212" type="car" from="eastFour___intersectionSixteen" to="intersectionOne___westOne" depart="212" />    <trip id="northThree___westOne_213" type="car" from="northThree___intersectionThree" to="intersectionOne___westOne" depart="213" />    <trip id="northTwo___eastFour_213" type="car" from="northTwo___intersectionTwo" to="intersectionSixteen___eastFour" depart="213" />    <trip id="southFour___northTwo_213" type="car" from="southFour___intersectionSixteen" to="intersectionTwo___northTwo" depart="213" />    <trip id="westTwo___northTwo_214" type="car" from="westTwo___intersectionFive" to="intersectionTwo___northTwo" depart="214" />    <trip id="eastFour___eastThree_215" type="car" from="eastFour___intersectionSixteen" to="intersectionTwelve___eastThree" depart="215" />    <trip id="northFour___southOne_215" type="car" from="northFour___intersectionFour" to="intersectionThirteen___southOne" depart="215" />    <trip id="southOne___northOne_215" type="car" from="southOne___intersectionThirteen" to="intersectionOne___northOne" depart="215" />    <trip id="westFour___northThree_217" type="car" from="westFour___intersectionThirteen" to="intersectionThree___northThree" depart="217" />    <trip id="southFour___northTwo_221" type="car" from="southFour___intersectionSixteen" to="intersectionTwo___northTwo" depart="221" />    <trip id="northFour___westTwo_222" type="car" from="northFour___intersectionFour" to="intersectionFive___westTwo" depart="222" />    <trip id="southOne___northThree_222" type="car" from="southOne___intersectionThirteen" to="intersectionThree___northThree" depart="222" />    <trip id="westOne___eastFour_222" type="car" from="westOne___intersectionOne" to="intersectionSixteen___eastFour" depart="222" />    <trip id="northThree___westThree_223" type="car" from="northThree___intersectionThree" to="intersectionNine___westThree" depart="223" />    <trip id="westOne___eastOne_224" type="car" from="westOne___intersectionOne" to="intersectionFour___eastOne" depart="224" />    <trip id="westTwo___northFour_224" type="car" from="westTwo___intersectionFive" to="intersectionFour___northFour" depart="224" />    <trip id="eastThree___southFour_228" type="car" from="eastThree___intersectionTwelve" to="intersectionSixteen___southFour" depart="228" />    <trip id="eastTwo___northTwo_228" type="car" from="eastTwo___intersectionEight" to="intersectionTwo___northTwo" depart="228" />    <trip id="northOne___northThree_228" type="car" from="northOne___intersectionOne" to="intersectionThree___northThree" depart="228" />    <trip id="westFour___northThree_229" type="car" from="westFour___intersectionThirteen" to="intersectionThree___northThree" depart="229" />    <trip id="northTwo___northOne_232" type="car" from="northTwo___intersectionTwo" to="intersectionOne___northOne" depart="232" />    <trip id="eastFour___westTwo_233" type="car" from="eastFour___intersectionSixteen" to="intersectionFive___westTwo" depart="233" />    <trip id="westFour___westOne_233" type="car" from="westFour___intersectionThirteen" to="intersectionOne___westOne" depart="233" />    <trip id="northTwo___northFour_235" type="car" from="northTwo___intersectionTwo" to="intersectionFour___northFour" depart="235" />    <trip id="westOne___southThree_235" type="car" from="westOne___intersectionOne" to="intersectionFifthteen___southThree" depart="235" />    <trip id="northFour___eastTwo_236" type="car" from="northFour___intersectionFour" to="intersectionEight___eastTwo" depart="236" />    <trip id="southTwo___eastFour_239" type="car" from="southTwo___intersectionFourteen" to="intersectionSixteen___eastFour" depart="239" />    <trip id="northTwo___southTwo_242" type="car" from="northTwo___intersectionTwo" to="intersectionFourteen___southTwo" depart="242" />    <trip id="westFour___eastFour_242" type="car" from="westFour___intersectionThirteen" to="intersectionSixteen___eastFour" depart="242" />    <trip id="westTwo___southFour_242" type="car" from="westTwo___intersectionFive" to="intersectionSixteen___southFour" depart="242" />    <trip id="eastFour___northThree_243" type="car" from="eastFour___intersectionSixteen" to="intersectionThree___northThree" depart="243" />    <trip id="northTwo___westOne_243" type="car" from="northTwo___intersectionTwo" to="intersectionOne___westOne" depart="243" />    <trip id="northOne___eastTwo_244" type="car" from="northOne___intersectionOne" to="intersectionEight___eastTwo" depart="244" />    <trip id="eastTwo___westFour_247" type="car" from="eastTwo___intersectionEight" to="intersectionThirteen___westFour" depart="247" />    <trip id="eastTwo___eastFour_248" type="car" from="eastTwo___intersectionEight" to="intersectionSixteen___eastFour" depart="248" />    <trip id="southThree___eastTwo_250" type="car" from="southThree___intersectionFifthteen" to="intersectionEight___eastTwo" depart="250" />    <trip id="westThree___eastOne_250" type="car" from="westThree___intersectionNine" to="intersectionFour___eastOne" depart="250" />    <trip id="eastOne___eastTwo_252" type="car" from="eastOne___intersectionFour" to="intersectionEight___eastTwo" depart="252" />    <trip id="eastTwo___westOne_252" type="car" from="eastTwo___intersectionEight" to="intersectionOne___westOne" depart="252" />    <trip id="eastFou