
        <routes>
            <vType id="car" accel="0.8" decel="4.5" sigma="0.5" length="5" minGap="2.5" maxSpeed="15" guiShape="passenger"/>
            <trip id="westTwo___eastTwo_0" type="car" from="westTwo___intersectionFive" to="intersectionEight___eastTwo" depart="0" />    <trip id="westThree___southFour_3" type="car" from="westThree___intersectionNine" to="intersectionSixteen___southFour" depart="3" />    <trip id="southTwo___eastThree_5" type="car" from="southTwo___intersectionFourteen" to="intersectionTwelve___eastThree" depart="5" />    <trip id="northThree___westFour_7" type="car" from="northThree___intersectionThree" to="intersectionThirteen___westFour" depart="7" />    <trip id="eastTwo___northFour_9" type="car" from="eastTwo___intersectionEight" to="intersectionFour___northFour" depart="9" />    <trip id="eastOne___southTwo_10" type="car" from="eastOne___intersectionFour" to="intersectionFourteen___southTwo" depart="10" />    <trip id="southTwo___southOne_10" type="car" from="southTwo___intersectionFourteen" to="intersectionThirteen___southOne" depart="10" />    <trip id="southTwo___southFour_12" type="car" from="southTwo___intersectionFourteen" to="intersectionSixteen___southFour" depart="12" />    <trip id="westOne___southFour_13" type="car" from="westOne___intersectionOne" to="intersectionSixteen___southFour" depart="13" />    <trip id="westOne___northOne_14" type="car" from="westOne___intersectionOne" to="intersectionOne___northOne" depart="14" />    <trip id="northTwo___southTwo_16" type="car" from="northTwo___intersectionTwo" to="intersectionFourteen___southTwo" depart="16" />    <trip id="northOne___westTwo_17" type="car" from="northOne___intersectionOne" to="intersectionFive___westTwo" depart="17" />    <trip id="northThree___southFour_18" type="car" from="northThree___intersectionThree" to="intersectionSixteen___southFour" depart="18" />    <trip id="southThree___northTwo_21" type="car" from="southThree___intersectionFifthteen" to="intersectionTwo___northTwo" depart="21" />    <trip id="westThree___northThree_21" type="car" from="westThree___intersectionNine" to="intersectionThree___northThree" depart="21" />    <trip id="northFour___westTwo_22" type="car" from="northFour___intersectionFour" to="intersectionFive___westTwo" depart="22" />    <trip id="northTwo___southFour_22" type="car" from="northTwo___intersectionTwo" to="intersectionSixteen___southFour" depart="22" />    <trip id="westThree___westFour_22" type="car" from="westThree___intersectionNine" to="intersectionThirteen___westFour" depart="22" />    <trip id="northTwo___westThree_23" type="car" from="northTwo___intersectionTwo" to="intersectionNine___westThree" depart="23" />    <trip id="northThree___northOne_24" type="car" from="northThree___intersectionThree" to="intersectionOne___northOne" depart="24" />    <trip id="northFour___westThree_25" type="car" from="northFour___intersectionFour" to="intersectionNine___westThree" depart="25" />    <trip id="northThree___westTwo_26" type="car" from="northThree___intersectionThree" to="intersectionFive___westTwo" depart="26" />    <trip id="westThree___southThree_26" type="car" from="westThree___intersectionNine" to="intersectionFifthteen___southThree" depart="26" />    <trip id="westFour___westThree_27" type="car" from="westFour___intersectionThirteen" to="intersectionNine___westThree" depart="27" />    <trip id="eastTwo___westThree_28" type="car" from="eastTwo___intersectionEight" to="intersectionNine___westThree" depart="28" />    <trip id="westTwo___westThree_28" type="car" from="westTwo___intersectionFive" to="intersectionNine___westThree" depart="28" />    <trip id="eastThree___westThree_29" type="car" from="eastThree___intersectionTwelve" to="intersectionNine___westThree" depart="29" />    <trip id="southTwo___westThree_31" type="car" from="southTwo___intersectionFourteen" to="intersectionNine___westThree" depart="31" />    <trip id="northTwo___eastThree_32" type="car" from="northTwo___intersectionTwo" to="intersectionTwelve___eastThree" depart="32" />    <trip id="eastTwo___westTwo_34" type="car" from="eastTwo___intersectionEight" to="intersectionFive___westTwo" depart="34" />    <trip id="westTwo___northTwo_35" type="car" from="westTwo___intersectionFive" to="intersectionTwo___northTwo" depart="35" />    <trip id="westThree___southOne_36" type="car" from="westThree___intersectionNine" to="intersectionThirteen___southOne" depart="36" />    <trip id="westThree___eastTwo_37" type="car" from="westThree___intersectionNine" to="intersectionEight___eastTwo" depart="37" />    <trip id="northThree___westFour_42" type="car" from="northThree___intersectionThree" to="intersectionThirteen___westFour" depart="42" />    <trip id="westOne___eastFour_43" type="car" from="westOne___intersectionOne" to="intersectionSixteen___eastFour" depart="43" />    <trip id="northOne___westOne_44" type="car" from="northOne___intersectionOne" to="intersectionOne___westOne" depart="44" />    <trip id="westThree___eastFour_45" type="car" from="westThree___intersectionNine" to="intersectionSixteen___eastFour" depart="45" />    <trip id="eastThree___northOne_47" type="car" from="eastThree___intersectionTwelve" to="intersectionOne___northOne" depart="47" />    <trip id="northTwo___northThree_47" type="car" from="northTwo___intersectionTwo" to="intersectionThree___northThree" depart="47" />    <trip id="northTwo___eastTwo_48" type="car" from="northTwo___intersectionTwo" to="intersectionEight___eastTwo" depart="48" />    <trip id="southTwo___northThree_48" type="car" from="southTwo___intersectionFourteen" to="intersectionThree___northThree" depart="48" />    <trip id="eastFour___southOne_49" type="car" from="eastFour___intersectionSixteen" to="intersectionThirteen___southOne" depart="49" />    <trip id="northThree___westFour_50" type="car" from="northThree___intersectionThree" to="intersectionThirteen___westFour" depart="50" />    <trip id="northTwo___northThree_50" type="car" from="northTwo___intersectionTwo" to="intersectionThree___northThree" depart="50" />    <trip id="westOne___westThree_50" type="car" from="westOne___intersectionOne" to="intersectionNine___westThree" depart="50" />    <trip id="southFour___northOne_51" type="car" from="southFour___intersectionSixteen" to="intersectionOne___northOne" depart="51" />    <trip id="southThree___northTwo_52" type="car" from="southThree___intersectionFifthteen" to="intersectionTwo___northTwo" depart="52" />    <trip id="eastTwo___northFour_56" type="car" from="eastTwo___intersectionEight" to="intersectionFour___northFour" depart="56" />    <trip id="eastThree___southFour_57" type="car" from="eastThree___intersectionTwelve" to="intersectionSixteen___southFour" depart="57" />    <trip id="northOne___northThree_58" type="car" from="northOne___intersectionOne" to="intersectionThree___northThree" depart="58" />    <trip id="northTwo___westThree_58" type="car" from="northTwo___intersectionTwo" to="intersectionNine___westThree" depart="58" />    <trip id="westFour___northOne_58" type="car" from="westFour___intersectionThirteen" to="intersectionOne___northOne" depart="58" />    <trip id="northThree___eastFour_59" type="car" from="northThree___intersectionThree" to="intersectionSixteen___eastFour" depart="59" />    <trip id="westOne___southFour_60" type="car" from="westOne___intersectionOne" to="intersectionSixteen___southFour" depart="60" />    <trip id="eastTwo___southTwo_61" type="car" from="eastTwo___intersectionEight" to="intersectionFourteen___southTwo" depart="61" />    <trip id="northFour___southOne_61" type="car" from="northFour___intersectionFour" to="intersectionThirteen___southOne" depart="61" />    <trip id="eastThree___eastTwo_63" type="car" from="eastThree___intersectionTwelve" to="intersectionEight___eastTwo" depart="63" />    <trip id="southTwo___eastFour_63" type="car" from="southTwo___intersectionFourteen" to="intersectionSixteen___eastFour" depart="63" />    <trip id="eastThree___northThree_64" type="car" from="eastThree___intersectionTwelve" to="intersectionThree___northThree" depart="64" />    <trip id="southOne___southFour_64" type="car" from="southOne___intersectionThirteen" to="intersectionSixteen___southFour" depart="64" />    <trip id="southThree___eastTwo_64" type="car" from="southThree___intersectionFifthteen" to="intersectionEight___eastTwo" depart="64" />    <trip id="eastFour___westOne_65" type="car" from="eastFour___intersectionSixteen" to="intersectionOne___westOne" depart="65" />    <trip id="southThree___westTwo_65" type="car" from="southThree___intersectionFifthteen" to="intersectionFive___westTwo" depart="65" />    <trip id="northFour___eastOne_66" type="car" from="northFour___intersectionFour" to="intersectionFour___eastOne" depart="66" />    <trip id="southOne___northFour_66" type="car" from="southOne___intersectionThirteen" to="intersectionFour___northFour" depart="66" />    <trip id="southThree___northTwo_66" type="car" from="southThree___intersectionFifthteen" to="intersectionTwo___northTwo" depart="66" />    <trip id="northThree___westFour_67" type="car" from="northThree___intersectionThree" to="intersectionThirteen___westFour" depart="67" />    <trip id="westFour___eastTwo_67" type="car" from="westFour___intersectionThirteen" to="intersectionEight___eastTwo" depart="67" />    <trip id="westThree___southOne_68" type="car" from="westThree___intersectionNine" to="intersectionThirteen___southOne" depart="68" />    <trip id="eastThree___northTwo_69" type="car" from="eastThree___intersectionTwelve" to="intersectionTwo___northTwo" depart="69" />    <trip id="northThree___northFour_69" type="car" from="northThree___intersectionThree" to="intersectionFour___northFour" depart="69" />    <trip id="southTwo___southOne_70" type="car" from="southTwo___intersectionFourteen" to="intersectionThirteen___southOne" depart="70" />    <trip id="westOne___eastFour_71" type="car" from="westOne___intersectionOne" to="intersectionSixteen___eastFour" depart="71" />    <trip id="northOne___eastThree_72" type="car" from="northOne___intersectionOne" to="intersectionTwelve___eastThree" depart="72" />    <trip id="westTwo___eastOne_74" type="car" from="westTwo___intersectionFive" to="intersectionFour___eastOne" depart="74" />    <trip id="southFour___northFour_75" type="car" from="southFour___intersectionSixteen" to="intersectionFour___northFour" depart="75" />    <trip id="westOne___southTwo_75" type="car" from="westOne___intersectionOne" to="intersectionFourteen___southTwo" depart="75" />    <trip id="southOne___eastThree_76" type="car" from="southOne___intersectionThirteen" to="intersectionTwelve___eastThree" depart="76" />    <trip id="southTwo___southFour_77" type="car" from="southTwo___intersectionFourteen" to="intersectionSixteen___southFour" depart="77" />    <trip id="northThree___northFour_79" type="car" from="northThree___intersectionThree" to="intersectionFour___northFour" depart="79" />    <trip id="northTwo___southThree_80" type="car" from="northTwo___intersectionTwo" to="intersectionFifthteen___southThree" depart="80" />    <trip id="westOne___westThree_80" type="car" from="westOne___intersectionOne" to="intersectionNine___westThree" depart="80" />    <trip id="westOne___westTwo_81" type="car" from="westOne___intersectionOne" to="intersectionFive___westTwo" depart="81" />    <trip id="southOne___northThree_83" type="car" from="southOne___intersectionThirteen" to="intersectionThree___northThree" depart="83" />    <trip id="southThree___eastThree_83" type="car" from="southThree___intersectionFifthteen" to="intersectionTwelve___eastThree" depart="83" />    <trip id="westFour___eastFour_85" type="car" from="westFour___intersectionThirteen" to="intersectionSixteen___eastFour" depart="85" />    <trip id="eastFour___southThree_86" type="car" from="eastFour___intersectionSixteen" to="intersectionFifthteen___southThree" depart="86" />    <trip id="westThree___eastThree_86" type="car" from="westThree___intersectionNine" to="intersectionTwelve___eastThree" depart="86" />    <trip id="eastOne___westFour_88" type="car" from="eastOne___intersectionFour" to="intersectionThirteen___westFour" depart="88" />    <trip id="eastThree___westFour_89" type="car" from="eastThree___intersectionTwelve" to="intersectionThirteen___westFour" depart="89" />    <trip id="westFour___eastOne_89" type="car" from="westFour___intersectionThirteen" to="intersectionFour___eastOne" depart="89" />    <trip id="northFour___northOne_90" type="car" from="northFour___intersectionFour" to="intersectionOne___northOne" depart="90" />    <trip id="eastFour___eastOne_91" type="car" from="eastFour___intersectionSixteen" to="intersectionFour___eastOne" depart="91" />    <trip id="eastTwo___eastThree_92" type="car" from="eastTwo___intersectionEight" to="intersectionTwelve___eastThree" depart="92" />    <trip id="northFour___northTwo_92" type="car" from="northFour___intersectionFour" to="intersectionTwo___northTwo" depart="92" />    <trip id="eastOne___southOne_93" type="car" from="eastOne___intersectionFour" to="intersectionThirteen___southOne" depart="93" />    <trip id="northThree___westOne_93" type="car" from="northThree___intersectionThree" to="intersectionOne___westOne" depart="93" />    <trip id="westOne___westTwo_93" type="car" from="westOne___intersectionOne" to="intersectionFive___westTwo" depart="93" />    <trip id="westThree___eastOne_93" type="car" from="westThree___intersectionNine" to="intersectionFour___eastOne" depart="93" />    <trip id="southThree___westTwo_94" type="car" from="southThree___intersectionFifthteen" to="intersectionFive___westTwo" depart="94" />    <trip id="westFour___southFour_94" type="car" from="westFour___intersectionThirteen" to="intersectionSixteen___southFour" depart="94" />    <trip id="eastOne___southOne_95" type="car" from="eastOne___intersectionFour" to="intersectionThirteen___southOne" depart="95" />    <trip id="westOne___northFour_95" type="car" from="westOne___intersectionOne" to="intersectionFour___northFour" depart="95" />    <trip id="westTwo___eastTwo_95" type="car" from="westTwo___intersectionFive" to="intersectionEight___eastTwo" depart="95" />    <trip id="westOne___westTwo_96" type="car" from="westOne___intersectionOne" to="intersectionFive___westTwo" depart="96" />    <trip id="northThree___westThree_97" type="car" from="northThree___intersectionThree" to="intersectionNine___westThree" depart="97" />    <trip id="northOne___northTwo_98" type="car" from="northOne___intersectionOne" to="intersectionTwo___northTwo" depart="98" />    <trip id="northOne___northTwo_99" type="car" from="northOne___intersectionOne" to="intersectionTwo___northTwo" depart="99" />    <trip id="southFour___eastFour_99" type="car" from="southFour___intersectionSixteen" to="intersectionSixteen___eastFour" depart="99" />    <trip id="northTwo___southThree_101" type="car" from="northTwo___intersectionTwo" to="intersectionFifthteen___southThree" depart="101" />    <trip id="southFour___westOne_101" type="car" from="southFour___intersectionSixteen" to="intersectionOne___westOne" depart="101" />    <trip id="northTwo___eastOne_102" type="car" from="northTwo___intersectionTwo" to="intersectionFour___eastOne" depart="102" />    <trip id="eastTwo___westThree_103" type="car" from="eastTwo___intersectionEight" to="intersectionNine___westThree" depart="103" />    <trip id="northThree___eastTwo_105" type="car" from="northThree___intersectionThree" to="intersectionEight___eastTwo" depart="105" />    <trip id="westTwo___eastTwo_105" type="car" from="westTwo___intersectionFive" to="intersectionEight___eastTwo" depart="105" />    <trip id="westOne___northFour_107" type="car" from="westOne___intersectionOne" to="intersectionFour___northFour" depart="107" />    <trip id="southOne___westOne_108" type="car" from="southOne___intersectionThirteen" to="intersectionOne___westOne" depart="108" />    <trip id="northThree___southFour_109" type="car" from="northThree___intersectionThree" to="intersectionSixteen___southFour" depart="109" />    <trip id="westOne___westTwo_109" type="car" from="westOne___intersectionOne" to="intersectionFive___westTwo" depart="109" />    <trip id="southThree___northTwo_110" type="car" from="southThree___intersectionFifthteen" to="intersectionTwo___northTwo" depart="110" />    <trip id="northFour___eastThree_111" type="car" from="northFour___intersectionFour" to="intersectionTwelve___eastThree" depart="111" />    <trip id="westFour___westOne_112" type="car" from="westFour___intersectionThirteen" to="intersectionOne___westOne" depart="112" />    <trip id="westOne___eastOne_112" type="car" from="westOne___intersectionOne" to="intersectionFour___eastOne" depart="112" />    <trip id="northOne___northThree_113" type="car" from="northOne___intersectionOne" to="intersectionThree___northThree" depart="113" />    <trip id="southThree___eastTwo_113" type="car" from="southThree___intersectionFifthteen" to="intersectionEight___eastTwo" depart="113" />    <trip id="eastThree___westOne_115" type="car" from="eastThree___intersectionTwelve" to="intersectionOne___westOne" depart="115" />    <trip id="eastOne___eastThree_116" type="car" from="eastOne___intersectionFour" to="intersectionTwelve___eastThree" depart="116" />    <trip id="westThree___southFour_119" type="car" from="westThree___intersectionNine" to="intersectionSixteen___southFour" depart="119" />    <trip id="eastTwo___westOne_120" type="car" from="eastTwo___intersectionEight" to="intersectionOne___westOne" depart="120" />    <trip id="southThree___westOne_120" type="car" from="southThree___intersectionFifthteen" to="intersectionOne___westOne" depart="120" />    <trip id="westThree___southFour_120" type="car" from="westThree___intersectionNine" to="intersectionSixteen___southFour" depart="120" />    <trip id="eastOne___westOne_121" type="car" from="eastOne___intersectionFour" to="intersectionOne___westOne" depart="121" />    <trip id="eastOne___southFour_122" type="car" from="eastOne___intersectionFour" to="intersectionSixteen___southFour" depart="122" />    <trip id="westFour___westOne_122" type="car" from="westFour___intersectionThirteen" to="intersectionOne___westOne" depart="122" />    <trip id="eastFour___southTwo_123" type="car" from="eastFour___intersectionSixteen" to="intersectionFourteen___southTwo" depart="123" />    <trip id="southOne___eastThree_123" type="car" from="southOne___intersectionThirteen" to="intersectionTwelve___eastThree" depart="123" />    <trip id="southThree___northFour_125" type="car" from="southThree___intersectionFifthteen" to="intersectionFour___northFour" depart="125" />    <trip id="westOne___northOne_125" type="car" from="westOne___intersectionOne" to="intersectionOne___northOne" depart="125" />    <trip id="northOne___eastFour_127" type="car" from="northOne___intersectionOne" to="intersectionSixteen___eastFour" depart="127" />    <trip id="westThree___eastFour_127" type="car" from="westThree___intersectionNine" to="intersectionSixteen___eastFour" depart="127" />    <trip id="eastFour___westOne_129" type="car" from="eastFour___intersectionSixteen" to="intersectionOne___westOne" depart="129" />    <trip id="eastThree___eastTwo_129" type="car" from="eastThree___intersectionTwelve" to="intersectionEight___eastTwo" depart="129" />    <trip id="eastOne___southThree_130" type="car" from="eastOne___intersectionFour" to="intersectionFifthteen___southThree" depart="130" />    <trip id="southTwo___southOne_131" type="car" from="southTwo___intersectionFourteen" to="intersectionThirteen___southOne" depart="131" />    <trip id="northFour___westThree_132" type="car" from="northFour___intersectionFour" to="intersectionNine___westThree" depart="132" />    <trip id="eastFour___westTwo_133" type="car" from="eastFour___intersectionSixteen" to="intersectionFive___westTwo" depart="133" />    <trip id="eastThree___eastFour_139" type="car" from="eastThree___intersectionTwelve" to="intersectionSixteen___eastFour" depart="139" />    <trip id="northThree___westOne_141" type="car" from="northThree___intersectionThree" to="intersectionOne___westOne" depart="141" />    <trip id="southFour___eastFour_142" type="car" from="southFour___intersectionSixteen" to="intersectionSixteen___eastFour" depart="142" />    <trip id="westTwo___southFour_142" type="car" from="westTwo___intersectionFive" to="intersectionSixteen___southFour" depart="142" />    <trip id="southThree___northTwo_147" type="car" from="southThree___intersectionFifthteen" to="intersectionTwo___northTwo" depart="147" />    <trip id="westOne___eastTwo_148" type="car" from="westOne___intersectionOne" to="intersectionEight___eastTwo" depart="148" />    <trip id="southTwo___eastThree_149" type="car" from="southTwo___intersectionFourteen" to="intersectionTwelve___eastThree" depart="149" />    <trip id="westOne___eastThree_150" type="car" from="westOne___intersectionOne" to="intersectionTwelve___eastThree" depart="150" />    <trip id="westTwo___southFour_151" type="car" from="westTwo___intersectionFive" to="intersectionSixteen___southFour" depart="151" />    <trip id="southFour___eastOne_152" type="car" from="southFour___intersectionSixteen" to="intersectionFour___eastOne" depart="152" />    <trip id="northOne___westThree_153" type="car" from="northOne___intersectionOne" to="intersectionNine___westThree" depart="153" />    <trip id="westFour___northFour_153" type="car" from="westFour___intersectionThirteen" to="intersectionFour___northFour" depart="153" />    <trip id="westFour___eastTwo_154" type="car" from="westFour___intersectionThirteen" to="intersectionEight___eastTwo" depart="154" />    <trip id="northOne___northThree_155" type="car" from="northOne___intersectionOne" to="intersectionThree___northThree" depart="155" />    <trip id="eastThree___westThree_157" type="car" from="eastThree___intersectionTwelve" to="intersectionNine___westThree" depart="157" />    <trip id="southTwo___northThree_157" type="car" from="southTwo___intersectionFourteen" to="intersectionThree___northThree" depart="157" />    <trip id="eastTwo___eastThree_158" type="car" from="eastTwo___intersectionEight" to="intersectionTwelve___eastThree" depart="158" />    <trip id="westOne___northOne_158" type="car" from="westOne___intersectionOne" to="intersectionOne___northOne" depart="158" />    <trip id="southTwo___westTwo_159" type="car" from="southTwo___intersectionFourteen" to="intersectionFive___westTwo" depart="159" />    <trip id="westFour___northTwo_159" type="car" from="westFour___intersectionThirteen" to="intersectionTwo___northTwo" depart="159" />    <trip id="westThree___southTwo_159" type="car" from="westThree___intersectionNine" to="intersectionFourteen___southTwo" depart="159" />    <trip id="northThree___westTwo_160" type="car" from="northThree___intersectionThree" to="intersectionFive___westTwo" depart="160" />    <trip id="westOne___eastThree_160" type="car" from="westOne___intersectionOne" to="intersectionTwelve___eastThree" depart="160" />    <trip id="eastOne___westTwo_162" type="car" from="eastOne___intersectionFour" to="intersectionFive___westTwo" depart="162" />    <trip id="eastThree___westFour_163" type="car" from="eastThree___intersectionTwelve" to="intersectionThirteen___westFour" depart="163" />    <trip id="eastFour___northOne_164" type="car" from="eastFour___intersectionSixteen" to="intersectionOne___northOne" depart="164" />    <trip id="eastTwo___westTwo_164" type="car" from="eastTwo___intersectionEight" to="intersectionFive___westTwo" depart="164" />    <trip id="southThree___eastFour_164" type="car" from="southThree___intersectionFifthteen" to="intersectionSixteen___eastFour" depart="164" />    <trip id="westTwo___westFour_164" type="car" from="westTwo___intersectionFive" to="intersectionThirteen___westFour" depart="164" />    <trip id="eastOne___northThree_165" type="car" from="eastOne___intersectionFour" to="intersectionThree___northThree" depart="165" />    <trip id="eastFour___southTwo_167" type="car" from="eastFour___intersectionSixteen" to="intersectionFourteen___southTwo" depart="167" />    <trip id="southOne___southTwo_167" type="car" from="southOne___intersectionThirteen" to="intersectionFourteen___southTwo" depart="167" />    <trip id="westFour___southOne_167" type="car" from="westFour___intersectionThirteen" to="intersectionThirteen___southOne" depart="167" />    <trip id="northFour___eastFour_168" type="car" from="northFour___intersectionFour" to="intersectionSixteen___eastFour" depart="168" />    <trip id="eastOne___westThree_169" type="car" from="eastOne___intersectionFour" to="intersectionNine___westThree" depart="169" />    <trip id="northThree___northTwo_169" type="car" from="northThree___intersectionThree" to="intersectionTwo___northTwo" depart="169" />    <trip id="northThree___eastOne_170" type="car" from="northThree___intersectionThree" to="intersectionFour___eastOne" depart="170" />    <trip id="southOne___westThree_170" type="car" from="southOne___intersectionThirteen" to="intersectionNine___westThree" depart="170" />    <trip id="eastOne___southOne_171" type="car" from="eastOne___intersectionFour" to="intersectionThirteen___southOne" depart="171" />    <trip id="northOne___southTwo_171" type="car" from="northOne___intersectionOne" to="intersectionFourteen___southTwo" depart="171" />    <trip id="southTwo___southThree_173" type="car" from="southTwo___intersectionFourteen" to="intersectionFifthteen___southThree" depart="173" />    <trip id="northOne___eastFour_175" type="car" from="northOne___intersectionOne" to="intersectionSixteen___eastFour" depart="175" />    <trip id="westFour___eastFour_175" type="car" from="westFour___intersectionThirteen" to="intersectionSixteen___eastFour" depart="175" />    <trip id="southOne___northOne_176" type="car" from="southOne___intersectionThirteen" to="intersectionOne___northOne" depart="176" />    <trip id="eastThree___southFour_177" type="car" from="eastThree___intersectionTwelve" to="intersectionSixteen___southFour" depart="177" />    <trip id="southOne___westTwo_177" type="car" from="southOne___intersectionThirteen" to="intersectionFive___westTwo" depart="177" />    <trip id="southThree___northTwo_177" type="car" from="southThree___intersectionFifthteen" to="intersectionTwo___northTwo" depart="177" />    <trip id="westOne___northTwo_178" type="car" from="westOne___intersectionOne" to="intersectionTwo___northTwo" depart="178" />    <trip id="northFour___eastTwo_180" type="car" from="northFour___intersectionFour" to="intersectionEight___eastTwo" depart="180" />    <trip id="northThree___westThree_180" type="car" from="northThree___intersectionThree" to="intersectionNine___westThree" depart="180" />    <trip id="southThree___southFour_180" type="car" from="southThree___intersectionFifthteen" to="intersectionSixteen___southFour" depart="180" />    <trip id="northThree___eastOne_182" type="car" from="northThree___intersectionThree" to="intersectionFour___eastOne" depart="182" />    <trip id="eastOne___eastThree_184" type="car" from="eastOne___intersectionFour" to="intersectionTwelve___eastThree" depart="184" />    <trip id="northTwo___northFour_185" type="car" from="northTwo___intersectionTwo" to="intersectionFour___northFour" depart="185" />    <trip id="southTwo___northFour_185" type="car" from="southTwo___intersectionFourteen" to="intersectionFour___northFour" depart="185" />    <trip id="westOne___southThree_185" type="car" from="westOne___intersectionOne" to="intersectionFifthteen___southThree" depart="185" />    <trip id="northFour___westFour_186" type="car" from="northFour___intersectionFour" to="intersectionThirteen___westFour" depart="186" />    <trip id="westThree___southThree_188" type="car" from="westThree___intersectionNine" to="intersectionFifthteen___southThree" depart="188" />    <trip id="northTwo___westThree_191" type="car" from="northTwo___intersectionTwo" to="intersectionNine___westThree" depart="191" />    <trip id="southOne___eastThree_191" type="car" from="southOne___intersectionThirteen" to="intersectionTwelve___eastThree" depart="191" />    <trip id="southThree___eastTwo_191" type="car" from="southThree___intersectionFifthteen" to="intersectionEight___eastTwo" depart="191" />    <trip id="westOne___eastThree_191" type="car" from="westOne___intersectionOne" to="intersectionTwelve___eastThree" depart="191" />    <trip id="westFour___northFour_195" type="car" from="westFour___intersectionThirteen" to="intersectionFour___northFour" depart="195" />    <trip id="westOne___northOne_195" type="car" from="westOne___intersectionOne" to="intersectionOne___northOne" depart="195" />    <trip id="westThree___eastOne_195" type="car" from="westThree___intersectionNine" to="intersectionFour___eastOne" depart="195" />    <trip id="westOne___westThree_196" type="car" from="westOne___intersectionOne" to="intersectionNine___westThree" depart="196" />    <trip id="eastTwo___northOne_197" type="car" from="eastTwo___intersectionEight" to="intersectionOne___northOne" depart="197" />    <trip id="westTwo___northTwo_198" type="car" from="westTwo___intersectionFive" to="intersectionTwo___northTwo" depart="198" />    <trip id="northFour___westFour_199" type="car" from="northFour___intersectionFour" to="intersectionThirteen___westFour" depart="199" />    <trip id="southThree___westThree_199" type="car" from="southThree___intersectionFifthteen" to="intersectionNine___westThree" depart="199" />    <trip id="southTwo___northOne_200" type="car" from="southTwo___intersectionFourteen" to="intersectionOne___northOne" depart="200" />    <trip id="northTwo___northThree_201" type="car" from="northTwo___intersectionTwo" to="intersectionThree___northThree" depart="201" />    <trip id="eastTwo___southOne_202" type="car" from="eastTwo___intersectionEight" to="intersectionThirteen___southOne" depart="202" />    <trip id="southTwo___northThree_202" type="car" from="southTwo___intersectionFourteen" to="intersectionThree___northThree" depart="2