
        <routes>
            <vType id="car" accel="0.8" decel="4.5" sigma="0.5" length="5" minGap="2.5" maxSpeed="15" guiShape="passenger"/>
            <trip id="eastOne___westFour_0" type="car" from="eastOne___intersectionFour" to="intersectionThirteen___westFour" depart="0" />    <trip id="northThree___northFour_0" type="car" from="northThree___intersectionThree" to="intersectionFour___northFour" depart="0" />    <trip id="northTwo___southFour_0" type="car" from="northTwo___intersectionTwo" to="intersectionSixteen___southFour" depart="0" />    <trip id="northOne___northThree_1" type="car" from="northOne___intersectionOne" to="intersectionThree___northThree" depart="1" />    <trip id="northThree___southOne_1" type="car" from="northThree___intersectionThree" to="intersectionThirteen___southOne" depart="1" />    <trip id="southOne___northThree_3" type="car" from="southOne___intersectionThirteen" to="intersectionThree___northThree" depart="3" />    <trip id="eastTwo___westThree_5" type="car" from="eastTwo___intersectionEight" to="intersectionNine___westThree" depart="5" />    <trip id="northOne___southTwo_5" type="car" from="northOne___intersectionOne" to="intersectionFourteen___southTwo" depart="5" />    <trip id="southFour___southThree_7" type="car" from="southFour___intersectionSixteen" to="intersectionFifthteen___southThree" depart="7" />    <trip id="westThree___westTwo_7" type="car" from="westThree___intersectionNine" to="intersectionFive___westTwo" depart="7" />    <trip id="westOne___southThree_8" type="car" from="westOne___intersectionOne" to="intersectionFifthteen___southThree" depart="8" />    <trip id="northFour___eastOne_11" type="car" from="northFour___intersectionFour" to="intersectionFour___eastOne" depart="11" />    <trip id="northTwo___westFour_14" type="car" from="northTwo___intersectionTwo" to="intersectionThirteen___westFour" depart="14" />    <trip id="eastOne___westTwo_15" type="car" from="eastOne___intersectionFour" to="intersectionFive___westTwo" depart="15" />    <trip id="westFour___southTwo_16" type="car" from="westFour___intersectionThirteen" to="intersectionFourteen___southTwo" depart="16" />    <trip id="southFour___northOne_17" type="car" from="southFour___intersectionSixteen" to="intersectionOne___northOne" depart="17" />    <trip id="eastOne___eastThree_18" type="car" from="eastOne___intersectionFour" to="intersectionTwelve___eastThree" depart="18" />    <trip id="southTwo___northFour_18" type="car" from="southTwo___intersectionFourteen" to="intersectionFour___northFour" depart="18" />    <trip id="westOne___southThree_23" type="car" from="westOne___intersectionOne" to="intersectionFifthteen___southThree" depart="23" />    <trip id="westThree___eastThree_25" type="car" from="westThree___intersectionNine" to="intersectionTwelve___eastThree" depart="25" />    <trip id="southFour___northTwo_26" type="car" from="southFour___intersectionSixteen" to="intersectionTwo___northTwo" depart="26" />    <trip id="eastThree___southOne_27" type="car" from="eastThree___intersectionTwelve" to="intersectionThirteen___southOne" depart="27" />    <trip id="northTwo___eastOne_27" type="car" from="northTwo___intersectionTwo" to="intersectionFour___eastOne" depart="27" />    <trip id="southOne___eastFour_27" type="car" from="southOne___intersectionThirteen" to="intersectionSixteen___eastFour" depart="27" />    <trip id="eastFour___eastThree_28" type="car" from="eastFour___intersectionSixteen" to="intersectionTwelve___eastThree" depart="28" />    <trip id="eastOne___southThree_29" type="car" from="eastOne___intersectionFour" to="intersectionFifthteen___southThree" depart="29" />    <trip id="westFour___southTwo_31" type="car" from="westFour___intersectionThirteen" to="intersectionFourteen___southTwo" depart="31" />    <trip id="southOne___westOne_32" type="car" from="southOne___intersectionThirteen" to="intersectionOne___westOne" depart="32" />    <trip id="northFour___eastOne_33" type="car" from="northFour___intersectionFour" to="intersectionFour___eastOne" depart="33" />    <trip id="southOne___northTwo_34" type="car" from="southOne___intersectionThirteen" to="intersectionTwo___northTwo" depart="34" />    <trip id="northOne___northFour_36" type="car" from="northOne___intersectionOne" to="intersectionFour___northFour" depart="36" />    <trip id="southOne___eastTwo_36" type="car" from="southOne___intersectionThirteen" to="intersectionEight___eastTwo" depart="36" />    <trip id="southThree___westThree_37" type="car" from="southThree___intersectionFifthteen" to="intersectionNine___westThree" depart="37" />    <trip id="westThree___northTwo_37" type="car" from="westThree___intersectionNine" to="intersectionTwo___northTwo" depart="37" />    <trip id="northThree___southOne_38" type="car" from="northThree___intersectionThree" to="intersectionThirteen___southOne" depart="38" />    <trip id="northOne___eastOne_39" type="car" from="northOne___intersectionOne" to="intersectionFour___eastOne" depart="39" />    <trip id="southTwo___eastThree_39" type="car" from="southTwo___intersectionFourteen" to="intersectionTwelve___eastThree" depart="39" />    <trip id="eastThree___eastFour_40" type="car" from="eastThree___intersectionTwelve" to="intersectionSixteen___eastFour" depart="40" />    <trip id="northOne___eastFour_40" type="car" from="northOne___intersectionOne" to="intersectionSixteen___eastFour" depart="40" />    <trip id="southFour___northThree_40" type="car" from="southFour___intersectionSixteen" to="intersectionThree___northThree" depart="40" />    <trip id="westThree___eastOne_40" type="car" from="westThree___intersectionNine" to="intersectionFour___eastOne" depart="40" />    <trip id="westOne___northTwo_41" type="car" from="westOne___intersectionOne" to="intersectionTwo___northTwo" depart="41" />    <trip id="westThree___eastFour_43" type="car" from="westThree___intersectionNine" to="intersectionSixteen___eastFour" depart="43" />    <trip id="northOne___westFour_44" type="car" from="northOne___intersectionOne" to="intersectionThirteen___westFour" depart="44" />    <trip id="eastOne___southThree_45" type="car" from="eastOne___intersectionFour" to="intersectionFifthteen___southThree" depart="45" />    <trip id="northThree___eastThree_45" type="car" from="northThree___intersectionThree" to="intersectionTwelve___eastThree" depart="45" />    <trip id="southFour___eastTwo_45" type="car" from="southFour___intersectionSixteen" to="intersectionEight___eastTwo" depart="45" />    <trip id="southThree___westOne_45" type="car" from="southThree___intersectionFifthteen" to="intersectionOne___westOne" depart="45" />    <trip id="northTwo___northOne_46" type="car" from="northTwo___intersectionTwo" to="intersectionOne___northOne" depart="46" />    <trip id="eastOne___southOne_47" type="car" from="eastOne___intersectionFour" to="intersectionThirteen___southOne" depart="47" />    <trip id="southFour___eastTwo_47" type="car" from="southFour___intersectionSixteen" to="intersectionEight___eastTwo" depart="47" />    <trip id="westThree___northTwo_48" type="car" from="westThree___intersectionNine" to="intersectionTwo___northTwo" depart="48" />    <trip id="northOne___northFour_49" type="car" from="northOne___intersectionOne" to="intersectionFour___northFour" depart="49" />    <trip id="southTwo___southFour_50" type="car" from="southTwo___intersectionFourteen" to="intersectionSixteen___southFour" depart="50" />    <trip id="westThree___northOne_52" type="car" from="westThree___intersectionNine" to="intersectionOne___northOne" depart="52" />    <trip id="westFour___westOne_55" type="car" from="westFour___intersectionThirteen" to="intersectionOne___westOne" depart="55" />    <trip id="northFour___northThree_56" type="car" from="northFour___intersectionFour" to="intersectionThree___northThree" depart="56" />    <trip id="northOne___northThree_57" type="car" from="northOne___intersectionOne" to="intersectionThree___northThree" depart="57" />    <trip id="westOne___westFour_58" type="car" from="westOne___intersectionOne" to="intersectionThirteen___westFour" depart="58" />    <trip id="westTwo___eastFour_58" type="car" from="westTwo___intersectionFive" to="intersectionSixteen___eastFour" depart="58" />    <trip id="eastOne___southTwo_59" type="car" from="eastOne___intersectionFour" to="intersectionFourteen___southTwo" depart="59" />    <trip id="northFour___eastTwo_59" type="car" from="northFour___intersectionFour" to="intersectionEight___eastTwo" depart="59" />    <trip id="northFour___southThree_61" type="car" from="northFour___intersectionFour" to="intersectionFifthteen___southThree" depart="61" />    <trip id="northFour___northOne_62" type="car" from="northFour___intersectionFour" to="intersectionOne___northOne" depart="62" />    <trip id="westTwo___westFour_62" type="car" from="westTwo___intersectionFive" to="intersectionThirteen___westFour" depart="62" />    <trip id="northFour___eastThree_64" type="car" from="northFour___intersectionFour" to="intersectionTwelve___eastThree" depart="64" />    <trip id="northFour___northTwo_67" type="car" from="northFour___intersectionFour" to="intersectionTwo___northTwo" depart="67" />    <trip id="southTwo___eastOne_70" type="car" from="southTwo___intersectionFourteen" to="intersectionFour___eastOne" depart="70" />    <trip id="westOne___northTwo_70" type="car" from="westOne___intersectionOne" to="intersectionTwo___northTwo" depart="70" />    <trip id="northThree___southFour_72" type="car" from="northThree___intersectionThree" to="intersectionSixteen___southFour" depart="72" />    <trip id="westOne___eastThree_73" type="car" from="westOne___intersectionOne" to="intersectionTwelve___eastThree" depart="73" />    <trip id="eastThree___eastTwo_75" type="car" from="eastThree___intersectionTwelve" to="intersectionEight___eastTwo" depart="75" />    <trip id="southTwo___eastOne_76" type="car" from="southTwo___intersectionFourteen" to="intersectionFour___eastOne" depart="76" />    <trip id="northThree___westFour_78" type="car" from="northThree___intersectionThree" to="intersectionThirteen___westFour" depart="78" />    <trip id="southTwo___westFour_80" type="car" from="southTwo___intersectionFourteen" to="intersectionThirteen___westFour" depart="80" />    <trip id="westThree___northThree_81" type="car" from="westThree___intersectionNine" to="intersectionThree___northThree" depart="81" />    <trip id="westTwo___southFour_82" type="car" from="westTwo___intersectionFive" to="intersectionSixteen___southFour" depart="82" />    <trip id="eastFour___westFour_83" type="car" from="eastFour___intersectionSixteen" to="intersectionThirteen___westFour" depart="83" />    <trip id="northThree___westFour_83" type="car" from="northThree___intersectionThree" to="intersectionThirteen___westFour" depart="83" />    <trip id="southFour___eastTwo_84" type="car" from="southFour___intersectionSixteen" to="intersectionEight___eastTwo" depart="84" />    <trip id="southTwo___eastFour_84" type="car" from="southTwo___intersectionFourteen" to="intersectionSixteen___eastFour" depart="84" />    <trip id="eastThree___westOne_86" type="car" from="eastThree___intersectionTwelve" to="intersectionOne___westOne" depart="86" />    <trip id="northFour___northThree_86" type="car" from="northFour___intersectionFour" to="intersectionThree___northThree" depart="86" />    <trip id="northFour___southThree_87" type="car" from="northFour___intersectionFour" to="intersectionFifthteen___southThree" depart="87" />    <trip id="eastFour___southTwo_88" type="car" from="eastFour___intersectionSixteen" to="intersectionFourteen___southTwo" depart="88" />    <trip id="northThree___southFour_90" type="car" from="northThree___intersectionThree" to="intersectionSixteen___southFour" depart="90" />    <trip id="westFour___eastFour_90" type="car" from="westFour___intersectionThirteen" to="intersectionSixteen___eastFour" depart="90" />    <trip id="eastThree___westFour_93" type="car" from="eastThree___intersectionTwelve" to="intersectionThirteen___westFour" depart="93" />    <trip id="northFour___eastOne_93" type="car" from="northFour___intersectionFour" to="intersectionFour___eastOne" depart="93" />    <trip id="southFour___southThree_93" type="car" from="southFour___intersectionSixteen" to="intersectionFifthteen___southThree" depart="93" />    <trip id="eastTwo___southFour_95" type="car" from="eastTwo___intersectionEight" to="intersectionSixteen___southFour" depart="95" />    <trip id="eastThree___northOne_96" type="car" from="eastThree___intersectionTwelve" to="intersectionOne___northOne" depart="96" />    <trip id="southFour___eastThree_96" type="car" from="southFour___intersectionSixteen" to="intersectionTwelve___eastThree" depart="96" />    <trip id="northOne___northThree_97" type="car" from="northOne___intersectionOne" to="intersectionThree___northThree" depart="97" />    <trip id="northFour___eastFour_98" type="car" from="northFour___intersectionFour" to="intersectionSixteen___eastFour" depart="98" />    <trip id="eastOne___westThree_99" type="car" from="eastOne___intersectionFour" to="intersectionNine___westThree" depart="99" />    <trip id="westFour___eastTwo_99" type="car" from="westFour___intersectionThirteen" to="intersectionEight___eastTwo" depart="99" />    <trip id="eastOne___northFour_104" type="car" from="eastOne___intersectionFour" to="intersectionFour___northFour" depart="104" />    <trip id="westOne___northFour_104" type="car" from="westOne___intersectionOne" to="intersectionFour___northFour" depart="104" />    <trip id="eastTwo___northTwo_105" type="car" from="eastTwo___intersectionEight" to="intersectionTwo___northTwo" depart="105" />    <trip id="northThree___northTwo_107" type="car" from="northThree___intersectionThree" to="intersectionTwo___northTwo" depart="107" />    <trip id="westTwo___northOne_107" type="car" from="westTwo___intersectionFive" to="intersectionOne___northOne" depart="107" />    <trip id="southOne___westThree_108" type="car" from="southOne___intersectionThirteen" to="intersectionNine___westThree" depart="108" />    <trip id="southThree___northFour_108" type="car" from="southThree___intersectionFifthteen" to="intersectionFour___northFour" depart="108" />    <trip id="eastThree___westTwo_109" type="car" from="eastThree___intersectionTwelve" to="intersectionFive___westTwo" depart="109" />    <trip id="southFour___eastOne_109" type="car" from="southFour___intersectionSixteen" to="intersectionFour___eastOne" depart="109" />    <trip id="southThree___northOne_109" type="car" from="southThree___intersectionFifthteen" to="intersectionOne___northOne" depart="109" />    <trip id="westFour___westOne_109" type="car" from="westFour___intersectionThirteen" to="intersectionOne___westOne" depart="109" />    <trip id="westOne___northTwo_109" type="car" from="westOne___intersectionOne" to="intersectionTwo___northTwo" depart="109" />    <trip id="westFour___westTwo_110" type="car" from="westFour___intersectionThirteen" to="intersectionFive___westTwo" depart="110" />    <trip id="eastFour___westOne_111" type="car" from="eastFour___intersectionSixteen" to="intersectionOne___westOne" depart="111" />    <trip id="westThree___northFour_111" type="car" from="westThree___intersectionNine" to="intersectionFour___northFour" depart="111" />    <trip id="westOne___northTwo_112" type="car" from="westOne___intersectionOne" to="intersectionTwo___northTwo" depart="112" />    <trip id="eastTwo___eastOne_113" type="car" from="eastTwo___intersectionEight" to="intersectionFour___eastOne" depart="113" />    <trip id="westOne___northFour_115" type="car" from="westOne___intersectionOne" to="intersectionFour___northFour" depart="115" />    <trip id="northThree___southFour_116" type="car" from="northThree___intersectionThree" to="intersectionSixteen___southFour" depart="116" />    <trip id="eastOne___southFour_117" type="car" from="eastOne___intersectionFour" to="intersectionSixteen___southFour" depart="117" />    <trip id="northThree___northFour_117" type="car" from="northThree___intersectionThree" to="intersectionFour___northFour" depart="117" />    <trip id="eastFour___westFour_118" type="car" from="eastFour___intersectionSixteen" to="intersectionThirteen___westFour" depart="118" />    <trip id="northTwo___northOne_118" type="car" from="northTwo___intersectionTwo" to="intersectionOne___northOne" depart="118" />    <trip id="northOne___southOne_120" type="car" from="northOne___intersectionOne" to="intersectionThirteen___southOne" depart="120" />    <trip id="westOne___westTwo_120" type="car" from="westOne___intersectionOne" to="intersectionFive___westTwo" depart="120" />    <trip id="southTwo___westFour_121" type="car" from="southTwo___intersectionFourteen" to="intersectionThirteen___westFour" depart="121" />    <trip id="westFour___eastFour_122" type="car" from="westFour___intersectionThirteen" to="intersectionSixteen___eastFour" depart="122" />    <trip id="northTwo___eastOne_123" type="car" from="northTwo___intersectionTwo" to="intersectionFour___eastOne" depart="123" />    <trip id="southThree___southFour_124" type="car" from="southThree___intersectionFifthteen" to="intersectionSixteen___southFour" depart="124" />    <trip id="southOne___eastTwo_125" type="car" from="southOne___intersectionThirteen" to="intersectionEight___eastTwo" depart="125" />    <trip id="southThree___southOne_125" type="car" from="southThree___intersectionFifthteen" to="intersectionThirteen___southOne" depart="125" />    <trip id="northOne___southOne_126" type="car" from="northOne___intersectionOne" to="intersectionThirteen___southOne" depart="126" />    <trip id="northOne___westOne_127" type="car" from="northOne___intersectionOne" to="intersectionOne___westOne" depart="127" />    <trip id="eastFour___westOne_129" type="car" from="eastFour___intersectionSixteen" to="intersectionOne___westOne" depart="129" />    <trip id="northOne___westTwo_129" type="car" from="northOne___intersectionOne" to="intersectionFive___westTwo" depart="129" />    <trip id="eastOne___westThree_130" type="car" from="eastOne___intersectionFour" to="intersectionNine___westThree" depart="130" />    <trip id="westTwo___eastThree_130" type="car" from="westTwo___intersectionFive" to="intersectionTwelve___eastThree" depart="130" />    <trip id="northOne___northTwo_132" type="car" from="northOne___intersectionOne" to="intersectionTwo___northTwo" depart="132" />    <trip id="eastThree___northOne_133" type="car" from="eastThree___intersectionTwelve" to="intersectionOne___northOne" depart="133" />    <trip id="northOne___westTwo_133" type="car" from="northOne___intersectionOne" to="intersectionFive___westTwo" depart="133" />    <trip id="eastOne___eastThree_136" type="car" from="eastOne___intersectionFour" to="intersectionTwelve___eastThree" depart="136" />    <trip id="southThree___northThree_138" type="car" from="southThree___intersectionFifthteen" to="intersectionThree___northThree" depart="138" />    <trip id="eastThree___northFour_139" type="car" from="eastThree___intersectionTwelve" to="intersectionFour___northFour" depart="139" />    <trip id="southThree___southTwo_139" type="car" from="southThree___intersectionFifthteen" to="intersectionFourteen___southTwo" depart="139" />    <trip id="eastOne___northThree_142" type="car" from="eastOne___intersectionFour" to="intersectionThree___northThree" depart="142" />    <trip id="southThree___northThree_142" type="car" from="southThree___intersectionFifthteen" to="intersectionThree___northThree" depart="142" />    <trip id="westTwo___southOne_142" type="car" from="westTwo___intersectionFive" to="intersectionThirteen___southOne" depart="142" />    <trip id="southThree___northTwo_144" type="car" from="southThree___intersectionFifthteen" to="intersectionTwo___northTwo" depart="144" />    <trip id="southTwo___southThree_144" type="car" from="southTwo___intersectionFourteen" to="intersectionFifthteen___southThree" depart="144" />    <trip id="eastOne___northThree_145" type="car" from="eastOne___intersectionFour" to="intersectionThree___northThree" depart="145" />    <trip id="northOne___westOne_145" type="car" from="northOne___intersectionOne" to="intersectionOne___westOne" depart="145" />    <trip id="westOne___southThree_145" type="car" from="westOne___intersectionOne" to="intersectionFifthteen___southThree" depart="145" />    <trip id="westTwo___eastTwo_146" type="car" from="westTwo___intersectionFive" to="intersectionEight___eastTwo" depart="146" />    <trip id="northFour___northThree_147" type="car" from="northFour___intersectionFour" to="intersectionThree___northThree" depart="147" />    <trip id="southTwo___westThree_147" type="car" from="southTwo___intersectionFourteen" to="intersectionNine___westThree" depart="147" />    <trip id="westThree___southTwo_147" type="car" from="westThree___intersectionNine" to="intersectionFourteen___southTwo" depart="147" />    <trip id="eastThree___westTwo_148" type="car" from="eastThree___intersectionTwelve" to="intersectionFive___westTwo" depart="148" />    <trip id="eastOne___northTwo_153" type="car" from="eastOne___intersectionFour" to="intersectionTwo___northTwo" depart="153" />    <trip id="westFour___westTwo_153" type="car" from="westFour___intersectionThirteen" to="intersectionFive___westTwo" depart="153" />    <trip id="eastTwo___southFour_154" type="car" from="eastTwo___intersectionEight" to="intersectionSixteen___southFour" depart="154" />    <trip id="eastOne___southFour_155" type="car" from="eastOne___intersectionFour" to="intersectionSixteen___southFour" depart="155" />    <trip id="eastTwo___northThree_155" type="car" from="eastTwo___intersectionEight" to="intersectionThree___northThree" depart="155" />    <trip id="eastOne___southOne_158" type="car" from="eastOne___intersectionFour" to="intersectionThirteen___southOne" depart="158" />    <trip id="southFour___eastThree_158" type="car" from="southFour___intersectionSixteen" to="intersectionTwelve___eastThree" depart="158" />    <trip id="westFour___southTwo_158" type="car" from="westFour___intersectionThirteen" to="intersectionFourteen___southTwo" depart="158" />    <trip id="eastOne___eastTwo_159" type="car" from="eastOne___intersectionFour" to="intersectionEight___eastTwo" depart="159" />    <trip id="eastTwo___northOne_160" type="car" from="eastTwo___intersectionEight" to="intersectionOne___northOne" depart="160" />    <trip id="eastOne___southFour_161" type="car" from="eastOne___intersectionFour" to="intersectionSixteen___southFour" depart="161" />    <trip id="westTwo___southThree_164" type="car" from="westTwo___intersectionFive" to="intersectionFifthteen___southThree" depart="164" />    <trip id="southTwo___eastOne_165" type="car" from="southTwo___intersectionFourteen" to="intersectionFour___eastOne" depart="165" />    <trip id="westOne___westThree_165" type="car" from="westOne___intersectionOne" to="intersectionNine___westThree" depart="165" />    <trip id="westFour___westThree_166" type="car" from="westFour___intersectionThirteen" to="intersectionNine___westThree" depart="166" />    <trip id="westTwo___southTwo_166" type="car" from="westTwo___intersectionFive" to="intersectionFourteen___southTwo" depart="166" />    <trip id="northOne___northFour_167" type="car" from="northOne___intersectionOne" to="intersectionFour___northFour" depart="167" />    <trip id="northFour___eastTwo_169" type="car" from="northFour___intersectionFour" to="intersectionEight___eastTwo" depart="169" />    <trip id="southFour___eastThree_169" type="car" from="southFour___intersectionSixteen" to="intersectionTwelve___eastThree" depart="169" />    <trip id="southOne___eastThree_171" type="car" from="southOne___intersectionThirteen" to="intersectionTwelve___eastThree" depart="171" />    <trip id="eastOne___southThree_172" type="car" from="eastOne___intersectionFour" to="intersectionFifthteen___southThree" depart="172" />    <trip id="northThree___eastTwo_172" type="car" from="northThree___intersectionThree" to="intersectionEight___eastTwo" depart="172" />    <trip id="northTwo___eastTwo_175" type="car" from="northTwo___intersectionTwo" to="intersectionEight___eastTwo" depart="175" />    <trip id="westTwo___eastThree_177" type="car" from="westTwo___intersectionFive" to="intersectionTwelve___eastThree" depart="177" />    <trip id="westOne___eastOne_178" type="car" from="westOne___intersectionOne" to="intersectionFour___eastOne" depart="178" />    <trip id="northThree___westOne_179" type="car" from="northThree___intersectionThree" to="intersectionOne___westOne" depart="179" />    <trip id="westThree___northFour_179" type="car" from="westThree___intersectionNine" to="intersectionFour___northFour" depart="179" />    <trip id="eastTwo___eastFour_180" type="car" from="eastTwo___intersectionEight" to="intersectionSixteen___eastFour" depart="180" />    <trip id="southOne___northFour_180" type="car" from="southOne___intersectionThirteen" to="intersectionFour___northFour" depart="180" />    <trip id="eastThree___southTwo_181" type="car" from="eastThree___intersectionTwelve" to="intersectionFourteen___southTwo" depart="181" />    <trip id="southOne___eastFour_181" type="car" from="southOne___intersectionThirteen" to="intersectionSixteen___eastFour" depart="181" />    <trip id="westOne___eastThree_183" type="car" from="westOne___intersectionOne" to="intersectionTwelve___eastThree" depart="183" />    <trip id="westTwo___southThree_183" type="car" from="westTwo___intersectionFive" to="intersectionFifthteen___southThree" depart="183" />    <trip id="westOne___eastThree_184" type="car" from="westOne___intersectionOne" to="intersectionTwelve___eastThree" depart="184" />    <trip id="westTwo___northFour_184" type="car" from="westTwo___intersectionFive" to="intersectionFour___northFour" depart="184" />    <trip id="eastFour___westOne_189" type="car" from="eastFour___intersectionSixteen" to="intersectionOne___westOne" depart="189" />    <trip id="northOne___eastOne_189" type="car" from="northOne___intersectionOne" to="intersectionFour___eastOne" depart="189" />    <trip id="southFour___westTwo_189" type="car" from="southFour___intersectionSixteen" to="intersectionFive___westTwo" depart="189" />    <trip id="southOne___northTwo_189" type="car" from="southOne___intersectionThirteen" to="intersectionTwo___northTwo" depart="189" />    <trip id="westOne___eastFour_190" type="car" from="westOne___intersectionOne" to="intersectionSixteen___eastFour" depart="190" />    <trip id="eastThree___westFour_191" type="car" from="eastThree___intersectionTwelve" to="intersectionThirteen___westFour" depart="191" />    <trip id="southTwo___southOne_191" type="car" from="southTwo___intersectionFourteen" to="intersectionThirteen___southOne" depart="191" />    <trip id="southTwo___southOne_193" type="car" from="southTwo___intersectionFourteen" to="intersectionThirteen___southOne" depart="193" />    <trip id="westTwo___northOne_195" type="car" from="westTwo___intersectionFive" to="intersectionOne___northOne" depart="195" />    <trip id="northFour___westFour_198" type="car" from="northFour___intersectionFour" to="intersectionThirteen___westFour" depart="198" />    <trip id="westFour___northTwo_199" type="car" from="westFour___intersectionThirteen" to="intersectionTwo___northTwo" depart="199" />    <trip id="westThree___northThree_199" type="car" from="westThree___intersectionNine" to="intersectionThree___northThree" depart="199" />    <trip id="eastOne___northTwo_200" type="car" from="eastOne___intersectionFour" to="intersectionTwo___northTwo" depart="200" />    <trip id="westOne___westThree_200" type="car" from="westOne___intersectionOne" to="intersectionNine___westThree" depart="200" />    <trip id="eastFour___northFour_201" type="car" from="eastFour___intersectionSixteen" to="intersectionFour___northFour" depart="201" />    <trip id="eastOne___westTwo_201" type="car" from="eastOne___intersectionFour" to="intersectionFive___westTwo" depart="201" />    <trip id="eastTwo___eastThree_203" type="car" from="eastTwo___intersectionEight" to="intersectionTwelve___eastThree" depart="203" />    <trip id="eastOne___westThree_204" type="car" from="eastOne___intersectionFour" to="intersectionNine___westThree" depart="204" />    <trip id="northFour___southFour_205" type="car" from="northFour___intersectionFour" to="intersectionSixteen___southFour" depart="205" />    <trip id="westOne___eastOne_205" type="car" from="westOne___intersectionOne" to="intersectionFour___eastOne" depart="205" />    <trip id="westTwo___eastOne_206" type="car" from="westTwo___intersectionFive" to="intersectionFour___eastOne" depart="206" />    <trip id="northTwo___westFour_207" type="car" from="northTwo___intersectionTwo" to="intersectionThirteen___westFour" depart="207" />    <trip id="southThree___northOne_207" type="car" from="southThree___intersectionFifthteen" to="intersectionOne___northOne" depart="207" />    <trip id="southThree___southOne_209" type="car" from="southThree___intersectionFifthteen" to="intersectionThirteen___southOne" depart="209" />    <trip id="southOne___eastFour_210" type="car" from="southOne___intersectionThirteen" to="intersectionSixteen___eastFour" depart="210" />    <trip id="northTwo___northThree_212" type="car" from="northTwo___intersectionTwo" to="intersectionThree___northThree" depart="212" />    <trip id="eastThree___eastFour_213" type="car" from="eastThree___intersectionTwelve" to="intersectionSixteen___eastFour" depart="213" />    <trip id="westFour___southThree_213" type="car" from="westFour___intersectionThirteen" to="intersectionFifthteen___southThree" depart="213" />    <trip id="eastTwo___eastFour_214" type="car" from="eastTwo___intersectionEight" to="intersectionSixteen___eastFour" depart="214" />    <trip id="westTwo___northTwo_215" type="car" from="westTwo___intersectionFive" to="intersectionTwo___northTwo" depart="215" />    <trip id="eastOne___eastTwo_216" type="car" from="eastOne___intersectionFour" to="intersectionEight___eastTwo" depart="216" />  