
        <routes>
            <vType id="car" accel="0.8" decel="4.5" sigma="0.5" length="5" minGap="2.5" maxSpeed="15" guiShape="passenger"/>
            <trip id="southFour___westOne_0" type="car" from="southFour___intersectionSixteen" to="intersectionOne___westOne" depart="0" />    <trip id="eastThree___westTwo_2" type="car" from="eastThree___intersectionTwelve" to="intersectionFive___westTwo" depart="2" />    <trip id="westFour___eastOne_2" type="car" from="westFour___intersectionThirteen" to="intersectionFour___eastOne" depart="2" />    <trip id="southThree___westThree_3" type="car" from="southThree___intersectionFifthteen" to="intersectionNine___westThree" depart="3" />    <trip id="westThree___southFour_3" type="car" from="westThree___intersectionNine" to="intersectionSixteen___southFour" depart="3" />    <trip id="northFour___southTwo_5" type="car" from="northFour___intersectionFour" to="intersectionFourteen___southTwo" depart="5" />    <trip id="northThree___northTwo_6" type="car" from="northThree___intersectionThree" to="intersectionTwo___northTwo" depart="6" />    <trip id="westThree___northFour_6" type="car" from="westThree___intersectionNine" to="intersectionFour___northFour" depart="6" />    <trip id="westFour___southThree_7" type="car" from="westFour___intersectionThirteen" to="intersectionFifthteen___southThree" depart="7" />    <trip id="westOne___southOne_8" type="car" from="westOne___intersectionOne" to="intersectionThirteen___southOne" depart="8" />    <trip id="westTwo___northThree_8" type="car" from="westTwo___intersectionFive" to="intersectionThree___northThree" depart="8" />    <trip id="southFour___northThree_9" type="car" from="southFour___intersectionSixteen" to="intersectionThree___northThree" depart="9" />    <trip id="southOne___southTwo_9" type="car" from="southOne___intersectionThirteen" to="intersectionFourteen___southTwo" depart="9" />    <trip id="westThree___southOne_11" type="car" from="westThree___intersectionNine" to="intersectionThirteen___southOne" depart="11" />    <trip id="westOne___northFour_13" type="car" from="westOne___intersectionOne" to="intersectionFour___northFour" depart="13" />    <trip id="eastOne___westTwo_14" type="car" from="eastOne___intersectionFour" to="intersectionFive___westTwo" depart="14" />    <trip id="eastThree___eastOne_14" type="car" from="eastThree___intersectionTwelve" to="intersectionFour___eastOne" depart="14" />    <trip id="southOne___westOne_14" type="car" from="southOne___intersectionThirteen" to="intersectionOne___westOne" depart="14" />    <trip id="eastOne___northTwo_15" type="car" from="eastOne___intersectionFour" to="intersectionTwo___northTwo" depart="15" />    <trip id="northThree___southOne_17" type="car" from="northThree___intersectionThree" to="intersectionThirteen___southOne" depart="17" />    <trip id="westOne___eastThree_17" type="car" from="westOne___intersectionOne" to="intersectionTwelve___eastThree" depart="17" />    <trip id="eastFour___southThree_19" type="car" from="eastFour___intersectionSixteen" to="intersectionFifthteen___southThree" depart="19" />    <trip id="westFour___westOne_19" type="car" from="westFour___intersectionThirteen" to="intersectionOne___westOne" depart="19" />    <trip id="southTwo___westThree_20" type="car" from="southTwo___intersectionFourteen" to="intersectionNine___westThree" depart="20" />    <trip id="westFour___southFour_20" type="car" from="westFour___intersectionThirteen" to="intersectionSixteen___southFour" depart="20" />    <trip id="southFour___eastFour_22" type="car" from="southFour___intersectionSixteen" to="intersectionSixteen___eastFour" depart="22" />    <trip id="westThree___eastFour_22" type="car" from="westThree___intersectionNine" to="intersectionSixteen___eastFour" depart="22" />    <trip id="eastTwo___eastFour_25" type="car" from="eastTwo___intersectionEight" to="intersectionSixteen___eastFour" depart="25" />    <trip id="northFour___southOne_25" type="car" from="northFour___intersectionFour" to="intersectionThirteen___southOne" depart="25" />    <trip id="westThree___eastFour_25" type="car" from="westThree___intersectionNine" to="intersectionSixteen___eastFour" depart="25" />    <trip id="eastOne___southFour_26" type="car" from="eastOne___intersectionFour" to="intersectionSixteen___southFour" depart="26" />    <trip id="southThree___northFour_26" type="car" from="southThree___intersectionFifthteen" to="intersectionFour___northFour" depart="26" />    <trip id="eastOne___southThree_27" type="car" from="eastOne___intersectionFour" to="intersectionFifthteen___southThree" depart="27" />    <trip id="eastThree___southThree_27" type="car" from="eastThree___intersectionTwelve" to="intersectionFifthteen___southThree" depart="27" />    <trip id="westOne___eastThree_27" type="car" from="westOne___intersectionOne" to="intersectionTwelve___eastThree" depart="27" />    <trip id="northThree___eastFour_28" type="car" from="northThree___intersectionThree" to="intersectionSixteen___eastFour" depart="28" />    <trip id="eastOne___northOne_30" type="car" from="eastOne___intersectionFour" to="intersectionOne___northOne" depart="30" />    <trip id="eastThree___northOne_30" type="car" from="eastThree___intersectionTwelve" to="intersectionOne___northOne" depart="30" />    <trip id="northThree___southFour_32" type="car" from="northThree___intersectionThree" to="intersectionSixteen___southFour" depart="32" />    <trip id="southOne___northThree_32" type="car" from="southOne___intersectionThirteen" to="intersectionThree___northThree" depart="32" />    <trip id="eastFour___westFour_36" type="car" from="eastFour___intersectionSixteen" to="intersectionThirteen___westFour" depart="36" />    <trip id="northThree___eastTwo_36" type="car" from="northThree___intersectionThree" to="intersectionEight___eastTwo" depart="36" />    <trip id="northThree___southOne_37" type="car" from="northThree___intersectionThree" to="intersectionThirteen___southOne" depart="37" />    <trip id="southTwo___eastOne_37" type="car" from="southTwo___intersectionFourteen" to="intersectionFour___eastOne" depart="37" />    <trip id="eastOne___southTwo_38" type="car" from="eastOne___intersectionFour" to="intersectionFourteen___southTwo" depart="38" />    <trip id="eastThree___eastFour_38" type="car" from="eastThree___intersectionTwelve" to="intersectionSixteen___eastFour" depart="38" />    <trip id="southThree___eastOne_39" type="car" from="southThree___intersectionFifthteen" to="intersectionFour___eastOne" depart="39" />    <trip id="westTwo___westOne_39" type="car" from="westTwo___intersectionFive" to="intersectionOne___westOne" depart="39" />    <trip id="eastOne___northThree_43" type="car" from="eastOne___intersectionFour" to="intersectionThree___northThree" depart="43" />    <trip id="southFour___eastOne_44" type="car" from="southFour___intersectionSixteen" to="intersectionFour___eastOne" depart="44" />    <trip id="southTwo___southFour_44" type="car" from="southTwo___intersectionFourteen" to="intersectionSixteen___southFour" depart="44" />    <trip id="westTwo___northOne_44" type="car" from="westTwo___intersectionFive" to="intersectionOne___northOne" depart="44" />    <trip id="northFour___westFour_48" type="car" from="northFour___intersectionFour" to="intersectionThirteen___westFour" depart="48" />    <trip id="southOne___westFour_49" type="car" from="southOne___intersectionThirteen" to="intersectionThirteen___westFour" depart="49" />    <trip id="southTwo___eastThree_50" type="car" from="southTwo___intersectionFourteen" to="intersectionTwelve___eastThree" depart="50" />    <trip id="eastThree___westThree_54" type="car" from="eastThree___intersectionTwelve" to="intersectionNine___westThree" depart="54" />    <trip id="northThree___westTwo_55" type="car" from="northThree___intersectionThree" to="intersectionFive___westTwo" depart="55" />    <trip id="southFour___northOne_57" type="car" from="southFour___intersectionSixteen" to="intersectionOne___northOne" depart="57" />    <trip id="westOne___eastFour_58" type="car" from="westOne___intersectionOne" to="intersectionSixteen___eastFour" depart="58" />    <trip id="northOne___eastTwo_59" type="car" from="northOne___intersectionOne" to="intersectionEight___eastTwo" depart="59" />    <trip id="westFour___northTwo_59" type="car" from="westFour___intersectionThirteen" to="intersectionTwo___northTwo" depart="59" />    <trip id="eastFour___westFour_60" type="car" from="eastFour___intersectionSixteen" to="intersectionThirteen___westFour" depart="60" />    <trip id="eastThree___eastTwo_60" type="car" from="eastThree___intersectionTwelve" to="intersectionEight___eastTwo" depart="60" />    <trip id="eastFour___northFour_61" type="car" from="eastFour___intersectionSixteen" to="intersectionFour___northFour" depart="61" />    <trip id="eastThree___southOne_61" type="car" from="eastThree___intersectionTwelve" to="intersectionThirteen___southOne" depart="61" />    <trip id="eastFour___southFour_62" type="car" from="eastFour___intersectionSixteen" to="intersectionSixteen___southFour" depart="62" />    <trip id="southOne___westOne_63" type="car" from="southOne___intersectionThirteen" to="intersectionOne___westOne" depart="63" />    <trip id="southTwo___northFour_63" type="car" from="southTwo___intersectionFourteen" to="intersectionFour___northFour" depart="63" />    <trip id="westOne___eastTwo_63" type="car" from="westOne___intersectionOne" to="intersectionEight___eastTwo" depart="63" />    <trip id="westFour___southThree_65" type="car" from="westFour___intersectionThirteen" to="intersectionFifthteen___southThree" depart="65" />    <trip id="westOne___northFour_65" type="car" from="westOne___intersectionOne" to="intersectionFour___northFour" depart="65" />    <trip id="eastTwo___westThree_66" type="car" from="eastTwo___intersectionEight" to="intersectionNine___westThree" depart="66" />    <trip id="northThree___westFour_66" type="car" from="northThree___intersectionThree" to="intersectionThirteen___westFour" depart="66" />    <trip id="westFour___northThree_66" type="car" from="westFour___intersectionThirteen" to="intersectionThree___northThree" depart="66" />    <trip id="northTwo___westThree_68" type="car" from="northTwo___intersectionTwo" to="intersectionNine___westThree" depart="68" />    <trip id="westFour___westTwo_72" type="car" from="westFour___intersectionThirteen" to="intersectionFive___westTwo" depart="72" />    <trip id="eastOne___westThree_73" type="car" from="eastOne___intersectionFour" to="intersectionNine___westThree" depart="73" />    <trip id="eastThree___southOne_73" type="car" from="eastThree___intersectionTwelve" to="intersectionThirteen___southOne" depart="73" />    <trip id="southOne___westTwo_74" type="car" from="southOne___intersectionThirteen" to="intersectionFive___westTwo" depart="74" />    <trip id="westTwo___northOne_74" type="car" from="westTwo___intersectionFive" to="intersectionOne___northOne" depart="74" />    <trip id="eastThree___southThree_75" type="car" from="eastThree___intersectionTwelve" to="intersectionFifthteen___southThree" depart="75" />    <trip id="northThree___eastThree_75" type="car" from="northThree___intersectionThree" to="intersectionTwelve___eastThree" depart="75" />    <trip id="westOne___eastThree_75" type="car" from="westOne___intersectionOne" to="intersectionTwelve___eastThree" depart="75" />    <trip id="westFour___eastThree_79" type="car" from="westFour___intersectionThirteen" to="intersectionTwelve___eastThree" depart="79" />    <trip id="eastFour___westFour_80" type="car" from="eastFour___intersectionSixteen" to="intersectionThirteen___westFour" depart="80" />    <trip id="northOne___northFour_80" type="car" from="northOne___intersectionOne" to="intersectionFour___northFour" depart="80" />    <trip id="southTwo___westThree_80" type="car" from="southTwo___intersectionFourteen" to="intersectionNine___westThree" depart="80" />    <trip id="westFour___eastOne_81" type="car" from="westFour___intersectionThirteen" to="intersectionFour___eastOne" depart="81" />    <trip id="eastFour___eastOne_83" type="car" from="eastFour___intersectionSixteen" to="intersectionFour___eastOne" depart="83" />    <trip id="northOne___southOne_83" type="car" from="northOne___intersectionOne" to="intersectionThirteen___southOne" depart="83" />    <trip id="eastOne___westOne_84" type="car" from="eastOne___intersectionFour" to="intersectionOne___westOne" depart="84" />    <trip id="southTwo___northThree_85" type="car" from="southTwo___intersectionFourteen" to="intersectionThree___northThree" depart="85" />    <trip id="westThree___eastTwo_86" type="car" from="westThree___intersectionNine" to="intersectionEight___eastTwo" depart="86" />    <trip id="eastTwo___northThree_87" type="car" from="eastTwo___intersectionEight" to="intersectionThree___northThree" depart="87" />    <trip id="northOne___westThree_87" type="car" from="northOne___intersectionOne" to="intersectionNine___westThree" depart="87" />    <trip id="westFour___westThree_88" type="car" from="westFour___intersectionThirteen" to="intersectionNine___westThree" depart="88" />    <trip id="eastThree___northThree_89" type="car" from="eastThree___intersectionTwelve" to="intersectionThree___northThree" depart="89" />    <trip id="southTwo___northTwo_90" type="car" from="southTwo___intersectionFourteen" to="intersectionTwo___northTwo" depart="90" />    <trip id="southOne___eastThree_93" type="car" from="southOne___intersectionThirteen" to="intersectionTwelve___eastThree" depart="93" />    <trip id="southFour___northOne_94" type="car" from="southFour___intersectionSixteen" to="intersectionOne___northOne" depart="94" />    <trip id="westTwo___southOne_94" type="car" from="westTwo___intersectionFive" to="intersectionThirteen___southOne" depart="94" />    <trip id="eastTwo___northFour_95" type="car" from="eastTwo___intersectionEight" to="intersectionFour___northFour" depart="95" />    <trip id="eastFour___southOne_96" type="car" from="eastFour___intersectionSixteen" to="intersectionThirteen___southOne" depart="96" />    <trip id="eastThree___northFour_96" type="car" from="eastThree___intersectionTwelve" to="intersectionFour___northFour" depart="96" />    <trip id="eastTwo___southTwo_97" type="car" from="eastTwo___intersectionEight" to="intersectionFourteen___southTwo" depart="97" />    <trip id="northTwo___northThree_98" type="car" from="northTwo___intersectionTwo" to="intersectionThree___northThree" depart="98" />    <trip id="eastTwo___southOne_99" type="car" from="eastTwo___intersectionEight" to="intersectionThirteen___southOne" depart="99" />    <trip id="southOne___eastOne_99" type="car" from="southOne___intersectionThirteen" to="intersectionFour___eastOne" depart="99" />    <trip id="southThree___northThree_100" type="car" from="southThree___intersectionFifthteen" to="intersectionThree___northThree" depart="100" />    <trip id="eastTwo___southOne_101" type="car" from="eastTwo___intersectionEight" to="intersectionThirteen___southOne" depart="101" />    <trip id="southThree___northThree_102" type="car" from="southThree___intersectionFifthteen" to="intersectionThree___northThree" depart="102" />    <trip id="southTwo___southOne_102" type="car" from="southTwo___intersectionFourteen" to="intersectionThirteen___southOne" depart="102" />    <trip id="westTwo___southTwo_104" type="car" from="westTwo___intersectionFive" to="intersectionFourteen___southTwo" depart="104" />    <trip id="eastFour___southOne_105" type="car" from="eastFour___intersectionSixteen" to="intersectionThirteen___southOne" depart="105" />    <trip id="southOne___southTwo_106" type="car" from="southOne___intersectionThirteen" to="intersectionFourteen___southTwo" depart="106" />    <trip id="eastThree___southTwo_111" type="car" from="eastThree___intersectionTwelve" to="intersectionFourteen___southTwo" depart="111" />    <trip id="northTwo___southTwo_112" type="car" from="northTwo___intersectionTwo" to="intersectionFourteen___southTwo" depart="112" />    <trip id="westThree___westFour_113" type="car" from="westThree___intersectionNine" to="intersectionThirteen___westFour" depart="113" />    <trip id="southTwo___eastTwo_118" type="car" from="southTwo___intersectionFourteen" to="intersectionEight___eastTwo" depart="118" />    <trip id="westThree___southTwo_118" type="car" from="westThree___intersectionNine" to="intersectionFourteen___southTwo" depart="118" />    <trip id="eastThree___southFour_120" type="car" from="eastThree___intersectionTwelve" to="intersectionSixteen___southFour" depart="120" />    <trip id="westThree___southThree_120" type="car" from="westThree___intersectionNine" to="intersectionFifthteen___southThree" depart="120" />    <trip id="northOne___southThree_122" type="car" from="northOne___intersectionOne" to="intersectionFifthteen___southThree" depart="122" />    <trip id="westFour___eastFour_123" type="car" from="westFour___intersectionThirteen" to="intersectionSixteen___eastFour" depart="123" />    <trip id="southTwo___eastOne_124" type="car" from="southTwo___intersectionFourteen" to="intersectionFour___eastOne" depart="124" />    <trip id="eastTwo___westTwo_125" type="car" from="eastTwo___intersectionEight" to="intersectionFive___westTwo" depart="125" />    <trip id="westThree___eastThree_126" type="car" from="westThree___intersectionNine" to="intersectionTwelve___eastThree" depart="126" />    <trip id="eastFour___westTwo_127" type="car" from="eastFour___intersectionSixteen" to="intersectionFive___westTwo" depart="127" />    <trip id="northOne___southTwo_127" type="car" from="northOne___intersectionOne" to="intersectionFourteen___southTwo" depart="127" />    <trip id="northFour___westThree_128" type="car" from="northFour___intersectionFour" to="intersectionNine___westThree" depart="128" />    <trip id="westThree___southThree_130" type="car" from="westThree___intersectionNine" to="intersectionFifthteen___southThree" depart="130" />    <trip id="northTwo___southFour_131" type="car" from="northTwo___intersectionTwo" to="intersectionSixteen___southFour" depart="131" />    <trip id="southThree___northThree_134" type="car" from="southThree___intersectionFifthteen" to="intersectionThree___northThree" depart="134" />    <trip id="westOne___northTwo_135" type="car" from="westOne___intersectionOne" to="intersectionTwo___northTwo" depart="135" />    <trip id="southOne___eastFour_138" type="car" from="southOne___intersectionThirteen" to="intersectionSixteen___eastFour" depart="138" />    <trip id="eastOne___northFour_142" type="car" from="eastOne___intersectionFour" to="intersectionFour___northFour" depart="142" />    <trip id="eastFour___southFour_144" type="car" from="eastFour___intersectionSixteen" to="intersectionSixteen___southFour" depart="144" />    <trip id="eastTwo___eastFour_144" type="car" from="eastTwo___intersectionEight" to="intersectionSixteen___eastFour" depart="144" />    <trip id="southFour___westFour_144" type="car" from="southFour___intersectionSixteen" to="intersectionThirteen___westFour" depart="144" />    <trip id="northTwo___southThree_148" type="car" from="northTwo___intersectionTwo" to="intersectionFifthteen___southThree" depart="148" />    <trip id="eastTwo___westTwo_149" type="car" from="eastTwo___intersectionEight" to="intersectionFive___westTwo" depart="149" />    <trip id="northThree___westOne_149" type="car" from="northThree___intersectionThree" to="intersectionOne___westOne" depart="149" />    <trip id="southFour___eastTwo_149" type="car" from="southFour___intersectionSixteen" to="intersectionEight___eastTwo" depart="149" />    <trip id="southTwo___eastFour_149" type="car" from="southTwo___intersectionFourteen" to="intersectionSixteen___eastFour" depart="149" />    <trip id="westTwo___eastTwo_149" type="car" from="westTwo___intersectionFive" to="intersectionEight___eastTwo" depart="149" />    <trip id="southThree___northTwo_150" type="car" from="southThree___intersectionFifthteen" to="intersectionTwo___northTwo" depart="150" />    <trip id="westFour___southFour_150" type="car" from="westFour___intersectionThirteen" to="intersectionSixteen___southFour" depart="150" />    <trip id="westOne___westThree_150" type="car" from="westOne___intersectionOne" to="intersectionNine___westThree" depart="150" />    <trip id="northThree___southOne_153" type="car" from="northThree___intersectionThree" to="intersectionThirteen___southOne" depart="153" />    <trip id="northOne___eastThree_154" type="car" from="northOne___intersectionOne" to="intersectionTwelve___eastThree" depart="154" />    <trip id="westFour___southOne_154" type="car" from="westFour___intersectionThirteen" to="intersectionThirteen___southOne" depart="154" />    <trip id="northFour___southThree_155" type="car" from="northFour___intersectionFour" to="intersectionFifthteen___southThree" depart="155" />    <trip id="northOne___westThree_155" type="car" from="northOne___intersectionOne" to="intersectionNine___westThree" depart="155" />    <trip id="northOne___northFour_157" type="car" from="northOne___intersectionOne" to="intersectionFour___northFour" depart="157" />    <trip id="southOne___westThree_159" type="car" from="southOne___intersectionThirteen" to="intersectionNine___westThree" depart="159" />    <trip id="eastOne___westFour_162" type="car" from="eastOne___intersectionFour" to="intersectionThirteen___westFour" depart="162" />    <trip id="westTwo___eastTwo_163" type="car" from="westTwo___intersectionFive" to="intersectionEight___eastTwo" depart="163" />    <trip id="westFour___westTwo_164" type="car" from="westFour___intersectionThirteen" to="intersectionFive___westTwo" depart="164" />    <trip id="eastFour___southThree_165" type="car" from="eastFour___intersectionSixteen" to="intersectionFifthteen___southThree" depart="165" />    <trip id="eastThree___eastOne_165" type="car" from="eastThree___intersectionTwelve" to="intersectionFour___eastOne" depart="165" />    <trip id="northFour___northTwo_169" type="car" from="northFour___intersectionFour" to="intersectionTwo___northTwo" depart="169" />    <trip id="westThree___eastTwo_170" type="car" from="westThree___intersectionNine" to="intersectionEight___eastTwo" depart="170" />    <trip id="southThree___northOne_171" type="car" from="southThree___intersectionFifthteen" to="intersectionOne___northOne" depart="171" />    <trip id="eastThree___eastOne_173" type="car" from="eastThree___intersectionTwelve" to="intersectionFour___eastOne" depart="173" />    <trip id="southFour___westOne_173" type="car" from="southFour___intersectionSixteen" to="intersectionOne___westOne" depart="173" />    <trip id="westTwo___eastThree_173" type="car" from="westTwo___intersectionFive" to="intersectionTwelve___eastThree" depart="173" />    <trip id="southThree___westFour_175" type="car" from="southThree___intersectionFifthteen" to="intersectionThirteen___westFour" depart="175" />    <trip id="eastOne___eastTwo_176" type="car" from="eastOne___intersectionFour" to="intersectionEight___eastTwo" depart="176" />    <trip id="southOne___northOne_176" type="car" from="southOne___intersectionThirteen" to="intersectionOne___northOne" depart="176" />    <trip id="northFour___southThree_177" type="car" from="northFour___intersectionFour" to="intersectionFifthteen___southThree" depart="177" />    <trip id="westFour___northOne_180" type="car" from="westFour___intersectionThirteen" to="intersectionOne___northOne" depart="180" />    <trip id="westThree___southThree_181" type="car" from="westThree___intersectionNine" to="intersectionFifthteen___southThree" depart="181" />    <trip id="northTwo___northOne_182" type="car" from="northTwo___intersectionTwo" to="intersectionOne___northOne" depart="182" />    <trip id="southFour___westTwo_184" type="car" from="southFour___intersectionSixteen" to="intersectionFive___westTwo" depart="184" />    <trip id="eastFour___westThree_186" type="car" from="eastFour___intersectionSixteen" to="intersectionNine___westThree" depart="186" />    <trip id="northOne___westFour_186" type="car" from="northOne___intersectionOne" to="intersectionThirteen___westFour" depart="186" />    <trip id="southTwo___northOne_187" type="car" from="southTwo___intersectionFourteen" to="intersectionOne___northOne" depart="187" />    <trip id="northTwo___eastTwo_189" type="car" from="northTwo___intersectionTwo" to="intersectionEight___eastTwo" depart="189" />    <trip id="southTwo___northFour_189" type="car" from="southTwo___intersectionFourteen" to="intersectionFour___northFour" depart="189" />    <trip id="eastTwo___westOne_191" type="car" from="eastTwo___intersectionEight" to="intersectionOne___westOne" depart="191" />    <trip id="westThree___eastFour_191" type="car" from="westThree___intersectionNine" to="intersectionSixteen___eastFour" depart="191" />    <trip id="northOne___westThree_192" type="car" from="northOne___intersectionOne" to="intersectionNine___westThree" depart="192" />    <trip id="eastTwo___northThree_193" type="car" from="eastTwo___intersectionEight" to="intersectionThree___northThree" depart="193" />    <trip id="westThree___eastTwo_195" type="car" from="westThree___intersectionNine" to="intersectionEight___eastTwo" depart="195" />    <trip id="northOne___southTwo_197" type="car" from="northOne___intersectionOne" to="intersectionFourteen___southTwo" depart="197" />    <trip id="northTwo___westOne_198" type="car" from="northTwo___intersectionTwo" to="intersectionOne___westOne" depart="198" />    <trip id="southOne___eastTwo_199" type="car" from="southOne___intersectionThirteen" to="intersectionEight___eastTwo" depart="199" />    <trip id="eastFour___northFour_201" type="car" from="eastFour___intersectionSixteen" to="intersectionFour___northFour" depart="201" />    <trip id="eastThree___southOne_201" type="car" from="eastThree___intersectionTwelve" to="intersectionThirteen___southOne" depart="201" />    <trip id="eastTwo___southTwo_202" type="car" from="eastTwo___intersectionEight" to="intersectionFourteen___southTwo" depart="202" />    <trip id="northTwo___southOne_207" type="car" from="northTwo___intersectionTwo" to="intersectionThirteen___southOne" depart="207" />    <trip id="westFour___northOne_210" type="car" from="westFour___intersectionThirteen" to="intersectionOne___northOne" depart="210" />    <trip id="northThree___eastOne_211" type="car" from="northThree___intersectionThree" to="intersectionFour___eastOne" depart="211" />    <trip id="southThree___westFour_212" type="car" from="southThree___intersectionFifthteen" to="intersectionThirteen___westFour" depart="212" />    <trip id="northFour___westFour_213" type="car" from="northFour___intersectionFour" to="intersectionThirteen___westFour" depart="213" />    <trip id="westThree___northThree_213" type="car" from="westThree___intersectionNine" to="intersectionThree___northThree" depart="213" />    <trip id="westTwo___eastOne_213" type="car" from="westTwo___intersectionFive" to="intersectionFour___eastOne" depart="213" />    <trip id="eastThree___southTwo_214" type="car" from="eastThree___intersectionTwelve" to="intersectionFourteen___southTwo" depart="214" />    <trip id="eastThree___southFour_216" type="car" from="eastThree___intersectionTwelve" to="intersectionSixteen___southFour" depart="216" />    <trip id="eastFour___westFour_220" type="car" from="eastFour___intersectionSixteen" to="intersectionThirteen___westFour" depart="220" />    <trip id="northFour___eastThree_220" type="car" from="northFour___intersectionFour" to="intersectionTwelve___eastThree" depart="220" />    <trip id="eastThree___northThree_224" type="car" from="eastThree___intersectionTwelve" to="intersectionThree___northThree" depart="224" />    <trip id="eastOne___eastFour_226" type="car" from="eastOne___intersectionFour" to="intersectionSixteen___eastFour" depart="226" />    <trip id="westThree___southOne_229" type="car" from="westThree___intersectionNine" to="intersectionThirteen___southOne" depart="229" />    <trip id="southOne___northTwo_230" type="car" from="southOne___intersectionThirteen" to="intersectionTwo___northTwo" depart="230" />    <trip id="eastTwo___southFour_231" type="car" from="eastTwo___intersectionEight" to="intersectionSixteen___southFour" depart="231" />    <trip id="northFour___westTwo_231" type="car" from="northFour___intersectionFour" to="intersectionFive___westTwo" depart="231" />    <trip id="northTwo___southOne_231" type="car" from="northTwo___intersectionTwo" to="intersectionThirteen___southOne" depart="231" />    <trip id="southFour___eastThree_233" type="car" from="southFour___intersectionSixteen" to="intersectionTwelve___eastThree" depart="233" />    <trip id="westThree___eastFour_234" type="car" from="westThree___intersectionNine" to="intersectionSixteen___eastFour" depart="234" />    <trip id="northThree___eastOne_238" type="car" from="northThree___intersectionThree" to="intersectionFour___eastOne" depart="238" />    <trip id="southOne___eastTwo_239" type="car" from="southOne___intersectionThirteen" to="intersectionEight___eastTwo" depart="239" />    <trip id="southTwo___westTwo_242" type="car" from="southTwo___intersectionFourteen" to="intersectionFive___westTwo" depart="242" />    <trip id="westFour___westTwo_242" type="car" from="westFour___intersectionThirteen" to="intersectionFive___westTwo" depart="242" />    <trip id="eastThree___westFour_245" type="car" from="eastThree___intersectionTwelve" to="intersectionThirteen___westFour" depart="245" />    <trip id="southOne___westThree_245" type="car" from="southOne___intersectionThirteen" to="intersectionNine___westThree" depart="245" />    <trip id="westFour___southThree_246" type="car" from="westFour___intersectionThirteen" to="intersectionFifthteen___southThree" depart="246" />    <trip id="westOne___southFour_246" type="car" from="westOne___intersectionOne" to="intersectionSixteen___southFour" depart="246" />    <trip id="northFour___westOne_248" type="car" from="northFour___intersectionFour" to="intersectionOne___westOne" depa