
        <routes>
            <vType id="car" accel="0.8" decel="4.5" sigma="0.5" length="5" minGap="2.5" maxSpeed="15" guiShape="passenger"/>
            <trip id="eastThree___westFour_0" type="car" from="eastThree___intersectionTwelve" to="intersectionThirteen___westFour" depart="0" />    <trip id="eastOne___northTwo_3" type="car" from="eastOne___intersectionFour" to="intersectionTwo___northTwo" depart="3" />    <trip id="southFour___southOne_3" type="car" from="southFour___intersectionSixteen" to="intersectionThirteen___southOne" depart="3" />    <trip id="westThree___eastTwo_3" type="car" from="westThree___intersectionNine" to="intersectionEight___eastTwo" depart="3" />    <trip id="southTwo___northFour_4" type="car" from="southTwo___intersectionFourteen" to="intersectionFour___northFour" depart="4" />    <trip id="eastFour___southFour_6" type="car" from="eastFour___intersectionSixteen" to="intersectionSixteen___southFour" depart="6" />    <trip id="westFour___northOne_7" type="car" from="westFour___intersectionThirteen" to="intersectionOne___northOne" depart="7" />    <trip id="westFour___southTwo_8" type="car" from="westFour___intersectionThirteen" to="intersectionFourteen___southTwo" depart="8" />    <trip id="southFour___eastThree_9" type="car" from="southFour___intersectionSixteen" to="intersectionTwelve___eastThree" depart="9" />    <trip id="eastThree___southOne_10" type="car" from="eastThree___intersectionTwelve" to="intersectionThirteen___southOne" depart="10" />    <trip id="southFour___westTwo_10" type="car" from="southFour___intersectionSixteen" to="intersectionFive___westTwo" depart="10" />    <trip id="southOne___westOne_10" type="car" from="southOne___intersectionThirteen" to="intersectionOne___westOne" depart="10" />    <trip id="southOne___eastFour_11" type="car" from="southOne___intersectionThirteen" to="intersectionSixteen___eastFour" depart="11" />    <trip id="northFour___northThree_12" type="car" from="northFour___intersectionFour" to="intersectionThree___northThree" depart="12" />    <trip id="southThree___westTwo_12" type="car" from="southThree___intersectionFifthteen" to="intersectionFive___westTwo" depart="12" />    <trip id="westFour___eastThree_12" type="car" from="westFour___intersectionThirteen" to="intersectionTwelve___eastThree" depart="12" />    <trip id="northOne___eastTwo_14" type="car" from="northOne___intersectionOne" to="intersectionEight___eastTwo" depart="14" />    <trip id="northOne___eastTwo_16" type="car" from="northOne___intersectionOne" to="intersectionEight___eastTwo" depart="16" />    <trip id="southFour___westFour_18" type="car" from="southFour___intersectionSixteen" to="intersectionThirteen___westFour" depart="18" />    <trip id="southThree___northOne_21" type="car" from="southThree___intersectionFifthteen" to="intersectionOne___northOne" depart="21" />    <trip id="westThree___eastOne_21" type="car" from="westThree___intersectionNine" to="intersectionFour___eastOne" depart="21" />    <trip id="westFour___eastTwo_22" type="car" from="westFour___intersectionThirteen" to="intersectionEight___eastTwo" depart="22" />    <trip id="eastFour___southOne_24" type="car" from="eastFour___intersectionSixteen" to="intersectionThirteen___southOne" depart="24" />    <trip id="northThree___northTwo_25" type="car" from="northThree___intersectionThree" to="intersectionTwo___northTwo" depart="25" />    <trip id="northOne___eastTwo_27" type="car" from="northOne___intersectionOne" to="intersectionEight___eastTwo" depart="27" />    <trip id="westFour___southOne_28" type="car" from="westFour___intersectionThirteen" to="intersectionThirteen___southOne" depart="28" />    <trip id="westOne___northThree_28" type="car" from="westOne___intersectionOne" to="intersectionThree___northThree" depart="28" />    <trip id="westOne___southTwo_29" type="car" from="westOne___intersectionOne" to="intersectionFourteen___southTwo" depart="29" />    <trip id="northThree___northFour_30" type="car" from="northThree___intersectionThree" to="intersectionFour___northFour" depart="30" />    <trip id="eastThree___southOne_31" type="car" from="eastThree___intersectionTwelve" to="intersectionThirteen___southOne" depart="31" />    <trip id="eastTwo___southTwo_32" type="car" from="eastTwo___intersectionEight" to="intersectionFourteen___southTwo" depart="32" />    <trip id="southFour___eastTwo_32" type="car" from="southFour___intersectionSixteen" to="intersectionEight___eastTwo" depart="32" />    <trip id="westFour___eastOne_33" type="car" from="westFour___intersectionThirteen" to="intersectionFour___eastOne" depart="33" />    <trip id="northFour___southOne_34" type="car" from="northFour___intersectionFour" to="intersectionThirteen___southOne" depart="34" />    <trip id="eastThree___southThree_35" type="car" from="eastThree___intersectionTwelve" to="intersectionFifthteen___southThree" depart="35" />    <trip id="northOne___westOne_35" type="car" from="northOne___intersectionOne" to="intersectionOne___westOne" depart="35" />    <trip id="northFour___southFour_41" type="car" from="northFour___intersectionFour" to="intersectionSixteen___southFour" depart="41" />    <trip id="southFour___southTwo_41" type="car" from="southFour___intersectionSixteen" to="intersectionFourteen___southTwo" depart="41" />    <trip id="westThree___westOne_41" type="car" from="westThree___intersectionNine" to="intersectionOne___westOne" depart="41" />    <trip id="eastThree___northOne_42" type="car" from="eastThree___intersectionTwelve" to="intersectionOne___northOne" depart="42" />    <trip id="southFour___westFour_43" type="car" from="southFour___intersectionSixteen" to="intersectionThirteen___westFour" depart="43" />    <trip id="westFour___northOne_43" type="car" from="westFour___intersectionThirteen" to="intersectionOne___northOne" depart="43" />    <trip id="westThree___southThree_43" type="car" from="westThree___intersectionNine" to="intersectionFifthteen___southThree" depart="43" />    <trip id="northOne___southThree_44" type="car" from="northOne___intersectionOne" to="intersectionFifthteen___southThree" depart="44" />    <trip id="eastOne___eastTwo_45" type="car" from="eastOne___intersectionFour" to="intersectionEight___eastTwo" depart="45" />    <trip id="southOne___eastTwo_46" type="car" from="southOne___intersectionThirteen" to="intersectionEight___eastTwo" depart="46" />    <trip id="northOne___northFour_47" type="car" from="northOne___intersectionOne" to="intersectionFour___northFour" depart="47" />    <trip id="westFour___northOne_48" type="car" from="westFour___intersectionThirteen" to="intersectionOne___northOne" depart="48" />    <trip id="westOne___eastOne_48" type="car" from="westOne___intersectionOne" to="intersectionFour___eastOne" depart="48" />    <trip id="westThree___eastTwo_48" type="car" from="westThree___intersectionNine" to="intersectionEight___eastTwo" depart="48" />    <trip id="northThree___westOne_49" type="car" from="northThree___intersectionThree" to="intersectionOne___westOne" depart="49" />    <trip id="eastFour___westFour_50" type="car" from="eastFour___intersectionSixteen" to="intersectionThirteen___westFour" depart="50" />    <trip id="westOne___southTwo_52" type="car" from="westOne___intersectionOne" to="intersectionFourteen___southTwo" depart="52" />    <trip id="southThree___eastOne_53" type="car" from="southThree___intersectionFifthteen" to="intersectionFour___eastOne" depart="53" />    <trip id="southTwo___southOne_53" type="car" from="southTwo___intersectionFourteen" to="intersectionThirteen___southOne" depart="53" />    <trip id="westFour___eastThree_53" type="car" from="westFour___intersectionThirteen" to="intersectionTwelve___eastThree" depart="53" />    <trip id="eastThree___westOne_54" type="car" from="eastThree___intersectionTwelve" to="intersectionOne___westOne" depart="54" />    <trip id="northThree___westOne_54" type="car" from="northThree___intersectionThree" to="intersectionOne___westOne" depart="54" />    <trip id="westThree___southOne_54" type="car" from="westThree___intersectionNine" to="intersectionThirteen___southOne" depart="54" />    <trip id="northFour___southFour_55" type="car" from="northFour___intersectionFour" to="intersectionSixteen___southFour" depart="55" />    <trip id="northTwo___southFour_63" type="car" from="northTwo___intersectionTwo" to="intersectionSixteen___southFour" depart="63" />    <trip id="northTwo___westTwo_65" type="car" from="northTwo___intersectionTwo" to="intersectionFive___westTwo" depart="65" />    <trip id="eastOne___northOne_69" type="car" from="eastOne___intersectionFour" to="intersectionOne___northOne" depart="69" />    <trip id="northTwo___eastFour_71" type="car" from="northTwo___intersectionTwo" to="intersectionSixteen___eastFour" depart="71" />    <trip id="southFour___westThree_71" type="car" from="southFour___intersectionSixteen" to="intersectionNine___westThree" depart="71" />    <trip id="westOne___eastTwo_71" type="car" from="westOne___intersectionOne" to="intersectionEight___eastTwo" depart="71" />    <trip id="northOne___westTwo_72" type="car" from="northOne___intersectionOne" to="intersectionFive___westTwo" depart="72" />    <trip id="southFour___westTwo_72" type="car" from="southFour___intersectionSixteen" to="intersectionFive___westTwo" depart="72" />    <trip id="eastTwo___southThree_73" type="car" from="eastTwo___intersectionEight" to="intersectionFifthteen___southThree" depart="73" />    <trip id="northTwo___southOne_73" type="car" from="northTwo___intersectionTwo" to="intersectionThirteen___southOne" depart="73" />    <trip id="southOne___eastFour_74" type="car" from="southOne___intersectionThirteen" to="intersectionSixteen___eastFour" depart="74" />    <trip id="eastOne___northThree_76" type="car" from="eastOne___intersectionFour" to="intersectionThree___northThree" depart="76" />    <trip id="eastTwo___westTwo_77" type="car" from="eastTwo___intersectionEight" to="intersectionFive___westTwo" depart="77" />    <trip id="eastThree___westTwo_80" type="car" from="eastThree___intersectionTwelve" to="intersectionFive___westTwo" depart="80" />    <trip id="northThree___southThree_81" type="car" from="northThree___intersectionThree" to="intersectionFifthteen___southThree" depart="81" />    <trip id="westFour___eastThree_81" type="car" from="westFour___intersectionThirteen" to="intersectionTwelve___eastThree" depart="81" />    <trip id="westThree___southOne_81" type="car" from="westThree___intersectionNine" to="intersectionThirteen___southOne" depart="81" />    <trip id="eastFour___southTwo_82" type="car" from="eastFour___intersectionSixteen" to="intersectionFourteen___southTwo" depart="82" />    <trip id="eastTwo___northFour_83" type="car" from="eastTwo___intersectionEight" to="intersectionFour___northFour" depart="83" />    <trip id="southOne___eastOne_83" type="car" from="southOne___intersectionThirteen" to="intersectionFour___eastOne" depart="83" />    <trip id="eastOne___eastFour_84" type="car" from="eastOne___intersectionFour" to="intersectionSixteen___eastFour" depart="84" />    <trip id="southFour___eastOne_84" type="car" from="southFour___intersectionSixteen" to="intersectionFour___eastOne" depart="84" />    <trip id="westFour___northTwo_86" type="car" from="westFour___intersectionThirteen" to="intersectionTwo___northTwo" depart="86" />    <trip id="eastThree___northThree_88" type="car" from="eastThree___intersectionTwelve" to="intersectionThree___northThree" depart="88" />    <trip id="northFour___northOne_88" type="car" from="northFour___intersectionFour" to="intersectionOne___northOne" depart="88" />    <trip id="eastFour___southThree_90" type="car" from="eastFour___intersectionSixteen" to="intersectionFifthteen___southThree" depart="90" />    <trip id="southOne___northThree_91" type="car" from="southOne___intersectionThirteen" to="intersectionThree___northThree" depart="91" />    <trip id="eastOne___eastTwo_92" type="car" from="eastOne___intersectionFour" to="intersectionEight___eastTwo" depart="92" />    <trip id="northTwo___westFour_92" type="car" from="northTwo___intersectionTwo" to="intersectionThirteen___westFour" depart="92" />    <trip id="northTwo___eastOne_93" type="car" from="northTwo___intersectionTwo" to="intersectionFour___eastOne" depart="93" />    <trip id="westTwo___southFour_93" type="car" from="westTwo___intersectionFive" to="intersectionSixteen___southFour" depart="93" />    <trip id="northOne___southThree_95" type="car" from="northOne___intersectionOne" to="intersectionFifthteen___southThree" depart="95" />    <trip id="eastFour___southOne_96" type="car" from="eastFour___intersectionSixteen" to="intersectionThirteen___southOne" depart="96" />    <trip id="northTwo___eastTwo_96" type="car" from="northTwo___intersectionTwo" to="intersectionEight___eastTwo" depart="96" />    <trip id="southThree___eastFour_96" type="car" from="southThree___intersectionFifthteen" to="intersectionSixteen___eastFour" depart="96" />    <trip id="westFour___westThree_96" type="car" from="westFour___intersectionThirteen" to="intersectionNine___westThree" depart="96" />    <trip id="southFour___northThree_98" type="car" from="southFour___intersectionSixteen" to="intersectionThree___northThree" depart="98" />    <trip id="northFour___southTwo_99" type="car" from="northFour___intersectionFour" to="intersectionFourteen___southTwo" depart="99" />    <trip id="southFour___northThree_102" type="car" from="southFour___intersectionSixteen" to="intersectionThree___northThree" depart="102" />    <trip id="westThree___eastFour_102" type="car" from="westThree___intersectionNine" to="intersectionSixteen___eastFour" depart="102" />    <trip id="southOne___eastFour_104" type="car" from="southOne___intersectionThirteen" to="intersectionSixteen___eastFour" depart="104" />    <trip id="northOne___westThree_106" type="car" from="northOne___intersectionOne" to="intersectionNine___westThree" depart="106" />    <trip id="southTwo___westThree_106" type="car" from="southTwo___intersectionFourteen" to="intersectionNine___westThree" depart="106" />    <trip id="eastTwo___eastThree_107" type="car" from="eastTwo___intersectionEight" to="intersectionTwelve___eastThree" depart="107" />    <trip id="northThree___southTwo_108" type="car" from="northThree___intersectionThree" to="intersectionFourteen___southTwo" depart="108" />    <trip id="southFour___northOne_108" type="car" from="southFour___intersectionSixteen" to="intersectionOne___northOne" depart="108" />    <trip id="eastOne___eastTwo_109" type="car" from="eastOne___intersectionFour" to="intersectionEight___eastTwo" depart="109" />    <trip id="southTwo___eastFour_109" type="car" from="southTwo___intersectionFourteen" to="intersectionSixteen___eastFour" depart="109" />    <trip id="southOne___eastOne_110" type="car" from="southOne___intersectionThirteen" to="intersectionFour___eastOne" depart="110" />    <trip id="eastFour___westOne_115" type="car" from="eastFour___intersectionSixteen" to="intersectionOne___westOne" depart="115" />    <trip id="northThree___westThree_115" type="car" from="northThree___intersectionThree" to="intersectionNine___westThree" depart="115" />    <trip id="westThree___eastThree_115" type="car" from="westThree___intersectionNine" to="intersectionTwelve___eastThree" depart="115" />    <trip id="eastOne___westTwo_118" type="car" from="eastOne___intersectionFour" to="intersectionFive___westTwo" depart="118" />    <trip id="southFour___eastOne_118" type="car" from="southFour___intersectionSixteen" to="intersectionFour___eastOne" depart="118" />    <trip id="southOne___eastFour_118" type="car" from="southOne___intersectionThirteen" to="intersectionSixteen___eastFour" depart="118" />    <trip id="westTwo___westThree_119" type="car" from="westTwo___intersectionFive" to="intersectionNine___westThree" depart="119" />    <trip id="eastTwo___westOne_120" type="car" from="eastTwo___intersectionEight" to="intersectionOne___westOne" depart="120" />    <trip id="northOne___westThree_120" type="car" from="northOne___intersectionOne" to="intersectionNine___westThree" depart="120" />    <trip id="northThree___eastFour_120" type="car" from="northThree___intersectionThree" to="intersectionSixteen___eastFour" depart="120" />    <trip id="northFour___eastThree_121" type="car" from="northFour___intersectionFour" to="intersectionTwelve___eastThree" depart="121" />    <trip id="eastOne___eastTwo_123" type="car" from="eastOne___intersectionFour" to="intersectionEight___eastTwo" depart="123" />    <trip id="westFour___eastOne_123" type="car" from="westFour___intersectionThirteen" to="intersectionFour___eastOne" depart="123" />    <trip id="southThree___northTwo_124" type="car" from="southThree___intersectionFifthteen" to="intersectionTwo___northTwo" depart="124" />    <trip id="westTwo___southThree_125" type="car" from="westTwo___intersectionFive" to="intersectionFifthteen___southThree" depart="125" />    <trip id="southFour___westOne_126" type="car" from="southFour___intersectionSixteen" to="intersectionOne___westOne" depart="126" />    <trip id="northOne___southTwo_127" type="car" from="northOne___intersectionOne" to="intersectionFourteen___southTwo" depart="127" />    <trip id="northFour___westFour_128" type="car" from="northFour___intersectionFour" to="intersectionThirteen___westFour" depart="128" />    <trip id="westTwo___northTwo_128" type="car" from="westTwo___intersectionFive" to="intersectionTwo___northTwo" depart="128" />    <trip id="southThree___westOne_129" type="car" from="southThree___intersectionFifthteen" to="intersectionOne___westOne" depart="129" />    <trip id="westThree___southFour_131" type="car" from="westThree___intersectionNine" to="intersectionSixteen___southFour" depart="131" />    <trip id="northThree___southThree_132" type="car" from="northThree___intersectionThree" to="intersectionFifthteen___southThree" depart="132" />    <trip id="eastOne___southFour_134" type="car" from="eastOne___intersectionFour" to="intersectionSixteen___southFour" depart="134" />    <trip id="southOne___northThree_135" type="car" from="southOne___intersectionThirteen" to="intersectionThree___northThree" depart="135" />    <trip id="southFour___northOne_136" type="car" from="southFour___intersectionSixteen" to="intersectionOne___northOne" depart="136" />    <trip id="eastOne___southOne_137" type="car" from="eastOne___intersectionFour" to="intersectionThirteen___southOne" depart="137" />    <trip id="eastTwo___southThree_137" type="car" from="eastTwo___intersectionEight" to="intersectionFifthteen___southThree" depart="137" />    <trip id="northOne___eastOne_137" type="car" from="northOne___intersectionOne" to="intersectionFour___eastOne" depart="137" />    <trip id="southThree___northFour_137" type="car" from="southThree___intersectionFifthteen" to="intersectionFour___northFour" depart="137" />    <trip id="westThree___southThree_137" type="car" from="westThree___intersectionNine" to="intersectionFifthteen___southThree" depart="137" />    <trip id="eastFour___northOne_138" type="car" from="eastFour___intersectionSixteen" to="intersectionOne___northOne" depart="138" />    <trip id="eastThree___eastFour_139" type="car" from="eastThree___intersectionTwelve" to="intersectionSixteen___eastFour" depart="139" />    <trip id="northTwo___westThree_139" type="car" from="northTwo___intersectionTwo" to="intersectionNine___westThree" depart="139" />    <trip id="southThree___southFour_140" type="car" from="southThree___intersectionFifthteen" to="intersectionSixteen___southFour" depart="140" />    <trip id="northTwo___northThree_143" type="car" from="northTwo___intersectionTwo" to="intersectionThree___northThree" depart="143" />    <trip id="westFour___southOne_145" type="car" from="westFour___intersectionThirteen" to="intersectionThirteen___southOne" depart="145" />    <trip id="eastOne___eastThree_146" type="car" from="eastOne___intersectionFour" to="intersectionTwelve___eastThree" depart="146" />    <trip id="northTwo___southOne_146" type="car" from="northTwo___intersectionTwo" to="intersectionThirteen___southOne" depart="146" />    <trip id="westThree___southTwo_146" type="car" from="westThree___intersectionNine" to="intersectionFourteen___southTwo" depart="146" />    <trip id="northThree___northOne_147" type="car" from="northThree___intersectionThree" to="intersectionOne___northOne" depart="147" />    <trip id="westThree___southFour_147" type="car" from="westThree___intersectionNine" to="intersectionSixteen___southFour" depart="147" />    <trip id="southOne___eastThree_148" type="car" from="southOne___intersectionThirteen" to="intersectionTwelve___eastThree" depart="148" />    <trip id="southFour___westOne_149" type="car" from="southFour___intersectionSixteen" to="intersectionOne___westOne" depart="149" />    <trip id="southThree___eastThree_149" type="car" from="southThree___intersectionFifthteen" to="intersectionTwelve___eastThree" depart="149" />    <trip id="southThree___westOne_150" type="car" from="southThree___intersectionFifthteen" to="intersectionOne___westOne" depart="150" />    <trip id="northOne___westFour_152" type="car" from="northOne___intersectionOne" to="intersectionThirteen___westFour" depart="152" />    <trip id="westThree___northTwo_152" type="car" from="westThree___intersectionNine" to="intersectionTwo___northTwo" depart="152" />    <trip id="southThree___eastFour_156" type="car" from="southThree___intersectionFifthteen" to="intersectionSixteen___eastFour" depart="156" />    <trip id="westTwo___northThree_157" type="car" from="westTwo___intersectionFive" to="intersectionThree___northThree" depart="157" />    <trip id="northThree___eastFour_158" type="car" from="northThree___intersectionThree" to="intersectionSixteen___eastFour" depart="158" />    <trip id="southTwo___eastThree_158" type="car" from="southTwo___intersectionFourteen" to="intersectionTwelve___eastThree" depart="158" />    <trip id="southFour___southThree_159" type="car" from="southFour___intersectionSixteen" to="intersectionFifthteen___southThree" depart="159" />    <trip id="westFour___eastFour_159" type="car" from="westFour___intersectionThirteen" to="intersectionSixteen___eastFour" depart="159" />    <trip id="northOne___eastThree_160" type="car" from="northOne___intersectionOne" to="intersectionTwelve___eastThree" depart="160" />    <trip id="southThree___eastOne_162" type="car" from="southThree___intersectionFifthteen" to="intersectionFour___eastOne" depart="162" />    <trip id="northFour___westFour_163" type="car" from="northFour___intersectionFour" to="intersectionThirteen___westFour" depart="163" />    <trip id="westFour___eastTwo_164" type="car" from="westFour___intersectionThirteen" to="intersectionEight___eastTwo" depart="164" />    <trip id="southFour___southOne_165" type="car" from="southFour___intersectionSixteen" to="intersectionThirteen___southOne" depart="165" />    <trip id="southThree___southOne_165" type="car" from="southThree___intersectionFifthteen" to="intersectionThirteen___southOne" depart="165" />    <trip id="northFour___eastOne_166" type="car" from="northFour___intersectionFour" to="intersectionFour___eastOne" depart="166" />    <trip id="northOne___southOne_166" type="car" from="northOne___intersectionOne" to="intersectionThirteen___southOne" depart="166" />    <trip id="eastFour___southOne_167" type="car" from="eastFour___intersectionSixteen" to="intersectionThirteen___southOne" depart="167" />    <trip id="westTwo___westOne_167" type="car" from="westTwo___intersectionFive" to="intersectionOne___westOne" depart="167" />    <trip id="southOne___northOne_171" type="car" from="southOne___intersectionThirteen" to="intersectionOne___northOne" depart="171" />    <trip id="southThree___northOne_171" type="car" from="southThree___intersectionFifthteen" to="intersectionOne___northOne" depart="171" />    <trip id="southThree___eastOne_172" type="car" from="southThree___intersectionFifthteen" to="intersectionFour___eastOne" depart="172" />    <trip id="northOne___westThree_173" type="car" from="northOne___intersectionOne" to="intersectionNine___westThree" depart="173" />    <trip id="westOne___northTwo_173" type="car" from="westOne___intersectionOne" to="intersectionTwo___northTwo" depart="173" />    <trip id="northOne___westThree_175" type="car" from="northOne___intersectionOne" to="intersectionNine___westThree" depart="175" />    <trip id="westFour___southTwo_176" type="car" from="westFour___intersectionThirteen" to="intersectionFourteen___southTwo" depart="176" />    <trip id="southFour___westThree_178" type="car" from="southFour___intersectionSixteen" to="intersectionNine___westThree" depart="178" />    <trip id="southThree___eastTwo_179" type="car" from="southThree___intersectionFifthteen" to="intersectionEight___eastTwo" depart="179" />    <trip id="northFour___westOne_180" type="car" from="northFour___intersectionFour" to="intersectionOne___westOne" depart="180" />    <trip id="northOne___eastOne_180" type="car" from="northOne___intersectionOne" to="intersectionFour___eastOne" depart="180" />    <trip id="southThree___westThree_181" type="car" from="southThree___intersectionFifthteen" to="intersectionNine___westThree" depart="181" />    <trip id="westThree___eastOne_181" type="car" from="westThree___intersectionNine" to="intersectionFour___eastOne" depart="181" />    <trip id="eastOne___eastThree_182" type="car" from="eastOne___intersectionFour" to="intersectionTwelve___eastThree" depart="182" />    <trip id="southFour___eastFour_183" type="car" from="southFour___intersectionSixteen" to="intersectionSixteen___eastFour" depart="183" />    <trip id="eastOne___eastTwo_184" type="car" from="eastOne___intersectionFour" to="intersectionEight___eastTwo" depart="184" />    <trip id="westOne___northOne_184" type="car" from="westOne___intersectionOne" to="intersectionOne___northOne" depart="184" />    <trip id="eastOne___southOne_185" type="car" from="eastOne___intersectionFour" to="intersectionThirteen___southOne" depart="185" />    <trip id="northFour___eastFour_185" type="car" from="northFour___intersectionFour" to="intersectionSixteen___eastFour" depart="185" />    <trip id="southOne___westOne_185" type="car" from="southOne___intersectionThirteen" to="intersectionOne___westOne" depart="185" />    <trip id="northTwo___westFour_186" type="car" from="northTwo___intersectionTwo" to="intersectionThirteen___westFour" depart="186" />    <trip id="southFour___northFour_186" type="car" from="southFour___intersectionSixteen" to="intersectionFour___northFour" depart="186" />    <trip id="northFour___southThree_187" type="car" from="northFour___intersectionFour" to="intersectionFifthteen___southThree" depart="187" />    <trip id="northThree___southThree_187" type="car" from="northThree___intersectionThree" to="intersectionFifthteen___southThree" depart="187" />    <trip id="northTwo___eastOne_187" type="car" from="northTwo___intersectionTwo" to="intersectionFour___eastOne" depart="187" />    <trip id="westOne___eastFour_187" type="car" from="westOne___intersectionOne" to="intersectionSixteen___eastFour" depart="187" />    <trip id="eastTwo___northOne_188" type="car" from="eastTwo___intersectionEight" to="intersectionOne___northOne" depart="188" />    <trip id="northOne___southThree_188" type="car" from="northOne___intersectionOne" to="intersectionFifthteen___southThree" depart="188" />    <trip id="northOne___westTwo_189" type="car" from="northOne___intersectionOne" to="intersectionFive___westTwo" depart="189" />    <trip id="northFour___southTwo_190" type="car" from="northFour___intersectionFour" to="intersectionFourteen___southTwo" depart="190" />    <trip id="southFour___westOne_190" type="car" from="southFour___intersectionSixteen" to="intersectionOne___westOne" depart="190" />    <trip id="westFour___southFour_193" type="car" from="westFour___intersectionThirteen" to="intersectionSixteen___southFour" depart="193" />    <trip id="westTwo___eastOne_193" type="car" from="westTwo___intersectionFive" to="intersectionFour___eastOne" depart="193" />    <trip id="southThree___eastOne_195" type="car" from="southThree___intersectionFifthteen" to="intersectionFour___eastOne" depart="195" />    <trip id="northFour___eastOne_196" type="car" from="northFour___intersectionFour" to="intersectionFour___eastOne" depart="196" />    <trip id="eastTwo___westThree_199" type="car" from="eastTwo___intersectionEight" to="intersectionNine___westThree" depart="199" />    <trip id="southFour___southTwo_200" type="car" from="southFour___intersectionSixteen" to="intersectionFourteen___southTwo" depart="200" />    <trip id="westOne___southTwo_201" type="car" from="westOne___intersectionOne" to="intersectionFourteen___southTwo" depart="201" />    <trip id="westOne___westFour_204" type="car" from="westOne___intersectionOne" to="intersectionThirteen___westFour" depart="204" />    <trip id="northThree___westOne_205" type="car" from="northThree___intersectionThree" to="intersectionOne___westOne" depart="205" />    <trip id="southTwo___westThree_206" type="car" from="southTwo___intersectionFourteen" to="intersectionNine___westThree" depart="206" />    <trip id="northTwo___eastTwo_207" type="car" from="northTwo___intersectionTwo" to="intersectionEight___eastTwo" depart="207" />    <trip id="southOne___westFour_207" type="car" from="southOne___intersectionThirteen" to="intersectionThirteen___westFour" depart="207" />    <trip id="southOne___eastTwo_208" type="car" from="southOne___intersectionThirteen" to="intersectionEight___eastTwo" depart="208" />    <trip id="westThree___northFour_208" type="car" from="westThree___intersectionNine" to="intersectionFour___northFour" depart="208" />    <trip id="southThree___eastFour_209" type="car" from="southThree___intersectionFifthteen" to="intersectionSixteen___eastFour" depart="209" />    <trip id="southFour___southOne_210" type="car" from="southFour___intersectionSixteen" to="intersectionThirteen___southOne" depart="210"