
        <routes>
            <vType id="car" accel="0.8" decel="4.5" sigma="0.5" length="5" minGap="2.5" maxSpeed="15" guiShape="passenger"/>
            <trip id="westBottom___eastBottom_0" type="car" from="westBottom___intersectionSW" to="intersectionSE___eastBottom" depart="0" />    <trip id="westBottom___southRight_2" type="car" from="westBottom___intersectionSW" to="intersectionSE___southRight" depart="2" />    <trip id="eastBottom___northLeft_4" type="car" from="eastBottom___intersectionSE" to="intersectionNW___northLeft" depart="4" />    <trip id="westBottom___eastTop_4" type="car" from="westBottom___intersectionSW" to="intersectionNE___eastTop" depart="4" />    <trip id="eastBottom___northRight_8" type="car" from="eastBottom___intersectionSE" to="intersectionNE___northRight" depart="8" />    <trip id="westBottom___eastBottom_8" type="car" from="westBottom___intersectionSW" to="intersectionSE___eastBottom" depart="8" />    <trip id="southLeft___eastTop_14" type="car" from="southLeft___intersectionSW" to="intersectionNE___eastTop" depart="14" />    <trip id="southRight___westTop_17" type="car" from="southRight___intersectionSE" to="intersectionNW___westTop" depart="17" />    <trip id="eastBottom___southRight_19" type="car" from="eastBottom___intersectionSE" to="intersectionSE___southRight" depart="19" />    <trip id="northLeft___westBottom_20" type="car" from="northLeft___intersectionNW" to="intersectionSW___westBottom" depart="20" />    <trip id="southRight___southLeft_21" type="car" from="southRight___intersectionSE" to="intersectionSW___southLeft" depart="21" />    <trip id="southLeft___westTop_23" type="car" from="southLeft___intersectionSW" to="intersectionNW___westTop" depart="23" />    <trip id="southRight___southLeft_25" type="car" from="southRight___intersectionSE" to="intersectionSW___southLeft" depart="25" />    <trip id="eastBottom___eastTop_27" type="car" from="eastBottom___intersectionSE" to="intersectionNE___eastTop" depart="27" />    <trip id="eastTop___westTop_27" type="car" from="eastTop___intersectionNE" to="intersectionNW___westTop" depart="27" />    <trip id="eastTop___southRight_29" type="car" from="eastTop___intersectionNE" to="intersectionSE___southRight" depart="29" />    <trip id="eastBottom___westTop_33" type="car" from="eastBottom___intersectionSE" to="intersectionNW___westTop" depart="33" />    <trip id="westBottom___eastBottom_34" type="car" from="westBottom___intersectionSW" to="intersectionSE___eastBottom" depart="34" />    <trip id="westTop___eastBottom_34" type="car" from="westTop___intersectionNW" to="intersectionSE___eastBottom" depart="34" />    <trip id="eastTop___eastBottom_35" type="car" from="eastTop___intersectionNE" to="intersectionSE___eastBottom" depart="35" />    <trip id="northLeft___westBottom_35" type="car" from="northLeft___intersectionNW" to="intersectionSW___westBottom" depart="35" />    <trip id="southRight___northLeft_35" type="car" from="southRight___intersectionSE" to="intersectionNW___northLeft" depart="35" />    <trip id="eastTop___eastBottom_36" type="car" from="eastTop___intersectionNE" to="intersectionSE___eastBottom" depart="36" />    <trip id="westBottom___westTop_38" type="car" from="westBottom___intersectionSW" to="intersectionNW___westTop" depart="38" />    <trip id="westBottom___westTop_39" type="car" from="westBottom___intersectionSW" to="intersectionNW___westTop" depart="39" />    <trip id="southRight___eastTop_42" type="car" from="southRight___intersectionSE" to="intersectionNE___eastTop" depart="42" />    <trip id="westBottom___northRight_46" type="car" from="westBottom___intersectionSW" to="intersectionNE___northRight" depart="46" />    <trip id="westBottom___southRight_48" type="car" from="westBottom___intersectionSW" to="intersectionSE___southRight" depart="48" />    <trip id="northLeft___northRight_51" type="car" from="northLeft___intersectionNW" to="intersectionNE___northRight" depart="51" />    <trip id="eastBottom___southRight_54" type="car" from="eastBottom___intersectionSE" to="intersectionSE___southRight" depart="54" />    <trip id="eastTop___northLeft_56" type="car" from="eastTop___intersectionNE" to="intersectionNW___northLeft" depart="56" />    <trip id="northRight___westTop_58" type="car" from="northRight___intersectionNE" to="intersectionNW___westTop" depart="58" />    <trip id="northRight___southLeft_62" type="car" from="northRight___intersectionNE" to="intersectionSW___southLeft" depart="62" />    <trip id="eastBottom___northLeft_63" type="car" from="eastBottom___intersectionSE" to="intersectionNW___northLeft" depart="63" />    <trip id="eastBottom___northLeft_67" type="car" from="eastBottom___intersectionSE" to="intersectionNW___northLeft" depart="67" />    <trip id="eastBottom___westBottom_68" type="car" from="eastBottom___intersectionSE" to="intersectionSW___westBottom" depart="68" />    <trip id="eastBottom___northRight_73" type="car" from="eastBottom___intersectionSE" to="intersectionNE___northRight" depart="73" />    <trip id="westBottom___northRight_74" type="car" from="westBottom___intersectionSW" to="intersectionNE___northRight" depart="74" />    <trip id="southLeft___westBottom_78" type="car" from="southLeft___intersectionSW" to="intersectionSW___westBottom" depart="78" />    <trip id="southLeft___southRight_79" type="car" from="southLeft___intersectionSW" to="intersectionSE___southRight" depart="79" />    <trip id="eastTop___westTop_85" type="car" from="eastTop___intersectionNE" to="intersectionNW___westTop" depart="85" />    <trip id="eastBottom___westTop_89" type="car" from="eastBottom___intersectionSE" to="intersectionNW___westTop" depart="89" />    <trip id="westTop___southLeft_92" type="car" from="westTop___intersectionNW" to="intersectionSW___southLeft" depart="92" />    <trip id="northRight___southRight_98" type="car" from="northRight___intersectionNE" to="intersectionSE___southRight" depart="98" />    <trip id="southLeft___westTop_100" type="car" from="southLeft___intersectionSW" to="intersectionNW___westTop" depart="100" />    <trip id="eastTop___northRight_102" type="car" from="eastTop___intersectionNE" to="intersectionNE___northRight" depart="102" />    <trip id="northRight___westBottom_103" type="car" from="northRight___intersectionNE" to="intersectionSW___westBottom" depart="103" />    <trip id="southRight___southLeft_103" type="car" from="southRight___intersectionSE" to="intersectionSW___southLeft" depart="103" />    <trip id="eastTop___northRight_108" type="car" from="eastTop___intersectionNE" to="intersectionNE___northRight" depart="108" />    <trip id="northLeft___westBottom_110" type="car" from="northLeft___intersectionNW" to="intersectionSW___westBottom" depart="110" />    <trip id="eastTop___eastBottom_112" type="car" from="eastTop___intersectionNE" to="intersectionSE___eastBottom" depart="112" />    <trip id="eastBottom___westBottom_114" type="car" from="eastBottom___intersectionSE" to="intersectionSW___westBottom" depart="114" />    <trip id="northLeft___southLeft_114" type="car" from="northLeft___intersectionNW" to="intersectionSW___southLeft" depart="114" />    <trip id="eastTop___northLeft_116" type="car" from="eastTop___intersectionNE" to="intersectionNW___northLeft" depart="116" />    <trip id="westBottom___northLeft_116" type="car" from="westBottom___intersectionSW" to="intersectionNW___northLeft" depart="116" />    <trip id="westBottom___southLeft_119" type="car" from="westBottom___intersectionSW" to="intersectionSW___southLeft" depart="119" />    <trip id="eastTop___westBottom_120" type="car" from="eastTop___intersectionNE" to="intersectionSW___westBottom" depart="120" />    <trip id="eastTop___northLeft_121" type="car" from="eastTop___intersectionNE" to="intersectionNW___northLeft" depart="121" />    <trip id="northLeft___eastBottom_124" type="car" from="northLeft___intersectionNW" to="intersectionSE___eastBottom" depart="124" />    <trip id="eastBottom___southLeft_125" type="car" from="eastBottom___intersectionSE" to="intersectionSW___southLeft" depart="125" />    <trip id="westTop___eastBottom_127" type="car" from="westTop___intersectionNW" to="intersectionSE___eastBottom" depart="127" />    <trip id="eastBottom___southRight_128" type="car" from="eastBottom___intersectionSE" to="intersectionSE___southRight" depart="128" />    <trip id="southRight___westBottom_128" type="car" from="southRight___intersectionSE" to="intersectionSW___westBottom" depart="128" />    <trip id="southRight___westTop_129" type="car" from="southRight___intersectionSE" to="intersectionNW___westTop" depart="129" />    <trip id="eastTop___northRight_130" type="car" from="eastTop___intersectionNE" to="intersectionNE___northRight" depart="130" />    <trip id="eastTop___eastBottom_133" type="car" from="eastTop___intersectionNE" to="intersectionSE___eastBottom" depart="133" />    <trip id="westTop___eastBottom_135" type="car" from="westTop___intersectionNW" to="intersectionSE___eastBottom" depart="135" />    <trip id="eastBottom___westTop_136" type="car" from="eastBottom___intersectionSE" to="intersectionNW___westTop" depart="136" />    <trip id="southRight___westTop_136" type="car" from="southRight___intersectionSE" to="intersectionNW___westTop" depart="136" />    <trip id="eastTop___northLeft_137" type="car" from="eastTop___intersectionNE" to="intersectionNW___northLeft" depart="137" />    <trip id="westBottom___southLeft_138" type="car" from="westBottom___intersectionSW" to="intersectionSW___southLeft" depart="138" />    <trip id="northRight___southRight_139" type="car" from="northRight___intersectionNE" to="intersectionSE___southRight" depart="139" />    <trip id="eastTop___northLeft_141" type="car" from="eastTop___intersectionNE" to="intersectionNW___northLeft" depart="141" />    <trip id="northLeft___westBottom_142" type="car" from="northLeft___intersectionNW" to="intersectionSW___westBottom" depart="142" />    <trip id="northRight___northLeft_144" type="car" from="northRight___intersectionNE" to="intersectionNW___northLeft" depart="144" />    <trip id="eastBottom___northRight_145" type="car" from="eastBottom___intersectionSE" to="intersectionNE___northRight" depart="145" />    <trip id="eastBottom___eastTop_146" type="car" from="eastBottom___intersectionSE" to="intersectionNE___eastTop" depart="146" />    <trip id="eastBottom___southLeft_147" type="car" from="eastBottom___intersectionSE" to="intersectionSW___southLeft" depart="147" />    <trip id="westTop___westBottom_147" type="car" from="westTop___intersectionNW" to="intersectionSW___westBottom" depart="147" />    <trip id="southRight___westBottom_148" type="car" from="southRight___intersectionSE" to="intersectionSW___westBottom" depart="148" />    <trip id="southRight___southLeft_151" type="car" from="southRight___intersectionSE" to="intersectionSW___southLeft" depart="151" />    <trip id="westTop___northRight_151" type="car" from="westTop___intersectionNW" to="intersectionNE___northRight" depart="151" />    <trip id="northLeft___westBottom_152" type="car" from="northLeft___intersectionNW" to="intersectionSW___westBottom" depart="152" />    <trip id="eastBottom___southRight_155" type="car" from="eastBottom___intersectionSE" to="intersectionSE___southRight" depart="155" />    <trip id="northLeft___northRight_155" type="car" from="northLeft___intersectionNW" to="intersectionNE___northRight" depart="155" />    <trip id="eastTop___southLeft_156" type="car" from="eastTop___intersectionNE" to="intersectionSW___southLeft" depart="156" />    <trip id="northLeft___southRight_156" type="car" from="northLeft___intersectionNW" to="intersectionSE___southRight" depart="156" />    <trip id="westTop___westBottom_156" type="car" from="westTop___intersectionNW" to="intersectionSW___westBottom" depart="156" />    <trip id="eastTop___southLeft_158" type="car" from="eastTop___intersectionNE" to="intersectionSW___southLeft" depart="158" />    <trip id="westBottom___westTop_163" type="car" from="westBottom___intersectionSW" to="intersectionNW___westTop" depart="163" />    <trip id="westBottom___northLeft_164" type="car" from="westBottom___intersectionSW" to="intersectionNW___northLeft" depart="164" />    <trip id="eastTop___westTop_165" type="car" from="eastTop___intersectionNE" to="intersectionNW___westTop" depart="165" />    <trip id="southRight___northLeft_165" type="car" from="southRight___intersectionSE" to="intersectionNW___northLeft" depart="165" />    <trip id="westTop___northLeft_165" type="car" from="westTop___intersectionNW" to="intersectionNW___northLeft" depart="165" />    <trip id="southLeft___southRight_168" type="car" from="southLeft___intersectionSW" to="intersectionSE___southRight" depart="168" />    <trip id="northRight___westTop_171" type="car" from="northRight___intersectionNE" to="intersectionNW___westTop" depart="171" />    <trip id="southRight___southLeft_171" type="car" from="southRight___intersectionSE" to="intersectionSW___southLeft" depart="171" />    <trip id="eastBottom___southLeft_173" type="car" from="eastBottom___intersectionSE" to="intersectionSW___southLeft" depart="173" />    <trip id="northLeft___southRight_173" type="car" from="northLeft___intersectionNW" to="intersectionSE___southRight" depart="173" />    <trip id="northRight___northLeft_176" type="car" from="northRight___intersectionNE" to="intersectionNW___northLeft" depart="176" />    <trip id="eastBottom___southLeft_179" type="car" from="eastBottom___intersectionSE" to="intersectionSW___southLeft" depart="179" />    <trip id="northLeft___westTop_180" type="car" from="northLeft___intersectionNW" to="intersectionNW___westTop" depart="180" />    <trip id="eastBottom___westTop_181" type="car" from="eastBottom___intersectionSE" to="intersectionNW___westTop" depart="181" />    <trip id="eastTop___southLeft_182" type="car" from="eastTop___intersectionNE" to="intersectionSW___southLeft" depart="182" />    <trip id="southRight___westBottom_183" type="car" from="southRight___intersectionSE" to="intersectionSW___westBottom" depart="183" />    <trip id="southRight___westBottom_184" type="car" from="southRight___intersectionSE" to="intersectionSW___westBottom" depart="184" />    <trip id="northLeft___southLeft_190" type="car" from="northLeft___intersectionNW" to="intersectionSW___southLeft" depart="190" />    <trip id="northRight___eastBottom_190" type="car" from="northRight___intersectionNE" to="intersectionSE___eastBottom" depart="190" />    <trip id="southRight___eastTop_192" type="car" from="southRight___intersectionSE" to="intersectionNE___eastTop" depart="192" />    <trip id="westBottom___northLeft_194" type="car" from="westBottom___intersectionSW" to="intersectionNW___northLeft" depart="194" />    <trip id="southLeft___northLeft_195" type="car" from="southLeft___intersectionSW" to="intersectionNW___northLeft" depart="195" />    <trip id="northLeft___eastTop_196" type="car" from="northLeft___intersectionNW" to="intersectionNE___eastTop" depart="196" />    <trip id="southLeft___westTop_198" type="car" from="southLeft___intersectionSW" to="intersectionNW___westTop" depart="198" />    <trip id="westBottom___westTop_204" type="car" from="westBottom___intersectionSW" to="intersectionNW___westTop" depart="204" />    <trip id="southLeft___westTop_206" type="car" from="southLeft___intersectionSW" to="intersectionNW___westTop" depart="206" />    <trip id="northRight___eastTop_207" type="car" from="northRight___intersectionNE" to="intersectionNE___eastTop" depart="207" />    <trip id="eastTop___westBottom_208" type="car" from="eastTop___intersectionNE" to="intersectionSW___westBottom" depart="208" />    <trip id="westBottom___southRight_208" type="car" from="westBottom___intersectionSW" to="intersectionSE___southRight" depart="208" />    <trip id="southRight___eastBottom_209" type="car" from="southRight___intersectionSE" to="intersectionSE___eastBottom" depart="209" />    <trip id="southRight___southLeft_210" type="car" from="southRight___intersectionSE" to="intersectionSW___southLeft" depart="210" />    <trip id="westBottom___westTop_210" type="car" from="westBottom___intersectionSW" to="intersectionNW___westTop" depart="210" />    <trip id="westTop___northLeft_210" type="car" from="westTop___intersectionNW" to="intersectionNW___northLeft" depart="210" />    <trip id="southLeft___westTop_212" type="car" from="southLeft___intersectionSW" to="intersectionNW___westTop" depart="212" />    <trip id="westBottom___eastBottom_212" type="car" from="westBottom___intersectionSW" to="intersectionSE___eastBottom" depart="212" />    <trip id="eastTop___northLeft_214" type="car" from="eastTop___intersectionNE" to="intersectionNW___northLeft" depart="214" />    <trip id="westTop___eastBottom_214" type="car" from="westTop___intersectionNW" to="intersectionSE___eastBottom" depart="214" />    <trip id="westTop___northLeft_216" type="car" from="westTop___intersectionNW" to="intersectionNW___northLeft" depart="216" />    <trip id="northLeft___eastTop_218" type="car" from="northLeft___intersectionNW" to="intersectionNE___eastTop" depart="218" />    <trip id="westBottom___southRight_228" type="car" from="westBottom___intersectionSW" to="intersectionSE___southRight" depart="228" />    <trip id="northLeft___northRight_230" type="car" from="northLeft___intersectionNW" to="intersectionNE___northRight" depart="230" />    <trip id="eastBottom___westTop_231" type="car" from="eastBottom___intersectionSE" to="intersectionNW___westTop" depart="231" />    <trip id="eastTop___eastBottom_231" type="car" from="eastTop___intersectionNE" to="intersectionSE___eastBottom" depart="231" />    <trip id="westBottom___northRight_233" type="car" from="westBottom___intersectionSW" to="intersectionNE___northRight" depart="233" />    <trip id="westTop___eastBottom_233" type="car" from="westTop___intersectionNW" to="intersectionSE___eastBottom" depart="233" />    <trip id="westBottom___eastBottom_236" type="car" from="westBottom___intersectionSW" to="intersectionSE___eastBottom" depart="236" />    <trip id="eastTop___southLeft_237" type="car" from="eastTop___intersectionNE" to="intersectionSW___southLeft" depart="237" />    <trip id="southRight___westTop_238" type="car" from="southRight___intersectionSE" to="intersectionNW___westTop" depart="238" />    <trip id="eastBottom___northRight_245" type="car" from="eastBottom___intersectionSE" to="intersectionNE___northRight" depart="245" />    <trip id="westBottom___eastTop_247" type="car" from="westBottom___intersectionSW" to="intersectionNE___eastTop" depart="247" />    <trip id="eastTop___southLeft_250" type="car" from="eastTop___intersectionNE" to="intersectionSW___southLeft" depart="250" />    <trip id="westBottom___westTop_253" type="car" from="westBottom___intersectionSW" to="intersectionNW___westTop" depart="253" />    <trip id="westBottom___westTop_256" type="car" from="westBottom___intersectionSW" to="intersectionNW___westTop" depart="256" />    <trip id="westTop___westBottom_258" type="car" from="westTop___intersectionNW" to="intersectionSW___westBottom" depart="258" />    <trip id="westBottom___eastBottom_259" type="car" from="westBottom___intersectionSW" to="intersectionSE___eastBottom" depart="259" />    <trip id="eastBottom___southLeft_262" type="car" from="eastBottom___intersectionSE" to="intersectionSW___southLeft" depart="262" />    <trip id="southRight___westTop_265" type="car" from="southRight___intersectionSE" to="intersectionNW___westTop" depart="265" />    <trip id="northLeft___eastTop_266" type="car" from="northLeft___intersectionNW" to="intersectionNE___eastTop" depart="266" />    <trip id="northRight___westTop_266" type="car" from="northRight___intersectionNE" to="intersectionNW___westTop" depart="266" />    <trip id="northLeft___southLeft_268" type="car" from="northLeft___intersectionNW" to="intersectionSW___southLeft" depart="268" />    <trip id="southLeft___southRight_268" type="car" from="southLeft___intersectionSW" to="intersectionSE___southRight" depart="268" />    <trip id="westTop___westBottom_268" type="car" from="westTop___intersectionNW" to="intersectionSW___westBottom" depart="268" />    <trip id="westTop___eastBottom_270" type="car" from="westTop___intersectionNW" to="intersectionSE___eastBottom" depart="270" />    <trip id="eastBottom___southRight_274" type="car" from="eastBottom___intersectionSE" to="intersectionSE___southRight" depart="274" />    <trip id="northLeft___southLeft_276" type="car" from="northLeft___intersectionNW" to="intersectionSW___southLeft" depart="276" />    <trip id="northRight___northLeft_277" type="car" from="northRight___intersectionNE" to="intersectionNW___northLeft" depart="277" />    <trip id="eastBottom___southRight_280" type="car" from="eastBottom___intersectionSE" to="intersectionSE___southRight" depart="280" />    <trip id="northRight___westBottom_280" type="car" from="northRight___intersectionNE" to="intersectionSW___westBottom" depart="280" />    <trip id="eastTop___westTop_282" type="car" from="eastTop___intersectionNE" to="intersectionNW___westTop" depart="282" />    <trip id="southRight___eastTop_289" type="car" from="southRight___intersectionSE" to="intersectionNE___eastTop" depart="289" />    <trip id="westTop___eastBottom_293" type="car" from="westTop___intersectionNW" to="intersectionSE___eastBottom" depart="293" />    <trip id="southRight___southLeft_297" type="car" from="southRight___intersectionSE" to="intersectionSW___southLeft" depart="297" />    <trip id="northLeft___southRight_299" type="car" from="northLeft___intersectionNW" to="intersectionSE___southRight" depart="299" />    <trip id="northLeft___eastBottom_304" type="car" from="northLeft___intersectionNW" to="intersectionSE___eastBottom" depart="304" />    <trip id="westBottom___westTop_306" type="car" from="westBottom___intersectionSW" to="intersectionNW___westTop" depart="306" />    <trip id="northLeft___northRight_307" type="car" from="northLeft___intersectionNW" to="intersectionNE___northRight" depart="307" />    <trip id="northLeft___northRight_310" type="car" from="northLeft___intersectionNW" to="intersectionNE___northRight" depart="310" />    <trip id="westTop___westBottom_310" type="car" from="westTop___intersectionNW" to="intersectionSW___westBottom" depart="310" />    <trip id="westBottom___southRight_312" type="car" from="westBottom___intersectionSW" to="intersectionSE___southRight" depart="312" />    <trip id="southRight___eastBottom_314" type="car" from="southRight___intersectionSE" to="intersectionSE___eastBottom" depart="314" />    <trip id="eastBottom___northLeft_315" type="car" from="eastBottom___intersectionSE" to="intersectionNW___northLeft" depart="315" />    <trip id="eastTop___northRight_321" type="car" from="eastTop___intersectionNE" to="intersectionNE___northRight" depart="321" />    <trip id="southRight___eastBottom_322" type="car" from="southRight___intersectionSE" to="intersectionSE___eastBottom" depart="322" />    <trip id="eastBottom___southLeft_323" type="car" from="eastBottom___intersectionSE" to="intersectionSW___southLeft" depart="323" />    <trip id="northRight___eastTop_323" type="car" from="northRight___intersectionNE" to="intersectionNE___eastTop" depart="323" />    <trip id="westTop___eastTop_323" type="car" from="westTop___intersectionNW" to="intersectionNE___eastTop" depart="323" />    <trip id="northLeft___southRight_331" type="car" from="northLeft___intersectionNW" to="intersectionSE___southRight" depart="331" />    <trip id="southRight___northLeft_332" type="car" from="southRight___intersectionSE" to="intersectionNW___northLeft" depart="332" />    <trip id="westBottom___northLeft_332" type="car" from="westBottom___intersectionSW" to="intersectionNW___northLeft" depart="332" />    <trip id="westBottom___westTop_336" type="car" from="westBottom___intersectionSW" to="intersectionNW___westTop" depart="336" />    <trip id="southLeft___eastTop_338" type="car" from="southLeft___intersectionSW" to="intersectionNE___eastTop" depart="338" />    <trip id="eastBottom___westBottom_343" type="car" from="eastBottom___intersectionSE" to="intersectionSW___westBottom" depart="343" />    <trip id="southRight___westBottom_346" type="car" from="southRight___intersectionSE" to="intersectionSW___westBottom" depart="346" />    <trip id="eastBottom___northRight_347" type="car" from="eastBottom___intersectionSE" to="intersectionNE___northRight" depart="347" />    <trip id="westBottom___northRight_350" type="car" from="westBottom___intersectionSW" to="intersectionNE___northRight" depart="350" />    <trip id="northLeft___southLeft_351" type="car" from="northLeft___intersectionNW" to="intersectionSW___southLeft" depart="351" />    <trip id="southRight___westBottom_353" type="car" from="southRight___intersectionSE" to="intersectionSW___westBottom" depart="353" />    <trip id="westTop___eastBottom_355" type="car" from="westTop___intersectionNW" to="intersectionSE___eastBottom" depart="355" />    <trip id="northLeft___southLeft_356" type="car" from="northLeft___intersectionNW" to="intersectionSW___southLeft" depart="356" />    <trip id="northLeft___southRight_357" type="car" from="northLeft___intersectionNW" to="intersectionSE___southRight" depart="357" />    <trip id="southRight___southLeft_359" type="car" from="southRight___intersectionSE" to="intersectionSW___southLeft" depart="359" />    <trip id="westBottom___eastBottom_359" type="car" from="westBottom___intersectionSW" to="intersectionSE___eastBottom" depart="359" />    <trip id="southLeft___eastTop_360" type="car" from="southLeft___intersectionSW" to="intersectionNE___eastTop" depart="360" />    <trip id="southRight___westBottom_361" type="car" from="southRight___intersectionSE" to="intersectionSW___westBottom" depart="361" />    <trip id="northLeft___eastTop_364" type="car" from="northLeft___intersectionNW" to="intersectionNE___eastTop" depart="364" />    <trip id="northRight___eastTop_366" type="car" from="northRight___intersectionNE" to="intersectionNE___eastTop" depart="366" />    <trip id="southLeft___eastBottom_367" type="car" from="southLeft___intersectionSW" to="intersectionSE___eastBottom" depart="367" />    <trip id="westBottom___eastTop_367" type="car" from="westBottom___intersectionSW" to="intersectionNE___eastTop" depart="367" />    <trip id="westBottom___southRight_369" type="car" from="westBottom___intersectionSW" to="intersectionSE___southRight" depart="369" />    <trip id="northLeft___eastTop_371" type="car" from="northLeft___intersectionNW" to="intersectionNE___eastTop" depart="371" />    <trip id="westTop___westBottom_373" type="car" from="westTop___intersectionNW" to="intersectionSW___westBottom" depart="373" />    <trip id="southLeft___northLeft_375" type="car" from="southLeft___intersectionSW" to="intersectionNW___northLeft" depart="375" />    <trip id="southRight___eastTop_376" type="car" from="southRight___intersectionSE" to="intersectionNE___eastTop" depart="376" />    <trip id="westTop___eastTop_381" type="car" from="westTop___intersectionNW" to="intersectionNE___eastTop" depart="381" />    <trip id="northRight___eastBottom_382" type="car" from="northRight___intersectionNE" to="intersectionSE___eastBottom" depart="382" />    <trip id="northRight___westBottom_384" type="car" from="northRight___intersectionNE" to="intersectionSW___westBottom" depart="384" />    <trip id="westBottom___westTop_385" type="car" from="westBottom___intersectionSW" to="intersectionNW___westTop" depart="385" />    <trip id="southLeft___westBottom_386" type="car" from="southLeft___intersectionSW" to="intersectionSW___westBottom" depart="386" />    <trip id="eastTop___northLeft_387" type="car" from="eastTop___intersectionNE" to="intersectionNW___northLeft" depart="387" />    <trip id="northLeft___northRight_394" type="car" from="northLeft___intersectionNW" to="intersectionNE___northRight" depart="394" />    <trip id="southLeft___eastTop_395" type="car" from="southLeft___intersectionSW" to="intersectionNE___eastTop" depart="395" />    <trip id="westTop___southRight_395" type="car" from="westTop___intersectionNW" to="intersectionSE___southRight" depart="395" />    <trip id="eastBottom___westBottom_397" type="car" from="eastBottom___intersectionSE" to="intersectionSW___westBottom" depart="397" />    <trip id="westTop___eastTop_399" type="car" from="westTop___intersectionNW" to="intersectionNE___eastTop" depart="399" />    <trip id="southLeft___eastBottom_402" type="car" from="southLeft___intersectionSW" to="intersectionSE___eastBottom" depart="402" />    <trip id="westBottom___southRight_402" type="car" from="westBottom___intersectionSW" to="intersectionSE___southRight" depart="402" />    <trip id="northLeft___northRight_404" type="car" from="northLeft___intersectionNW" to="intersectionNE___northRight" depart="404" />    <trip id="southLeft___eastBottom_406" type="car" from="southLeft___intersectionSW" to="intersectionSE___eastBottom" depart="406" />    <trip id="westBottom___southLeft_409" type="car" from="westBottom___intersectionSW" to="intersectionSW___southLeft" depart="409" />    <trip id="eastTop___southLeft_411" type="car" from="eastTop___intersectionNE" to="intersectionSW___southLeft" depart="411" />    <trip id="northLeft___westTop_413" type="car" from="northLeft___intersectionNW" to="intersectionNW___westTop" depart="413" />    <trip id="westBottom___northLeft_413" type="car" from="westBottom___intersectionSW" to="intersectionNW___northLeft" depart="413" />    <trip id="eastTop___northRight_415" type="car" from="eastTop___intersectionNE" to="intersectionNE___northRight" depart="415" />    <trip id="northRight___southRight_415" type="car" from="northRight___intersectionNE" to="intersectionSE___southRight" depart="415" />    <trip id="southRight___westBottom_417" type="car" from="southRight___intersectionSE" to="intersectionSW___westBottom" depart="417" />    <trip id="westBottom___westTop_418" type="car" from="westBottom___intersectionSW" to="intersectionNW___westTop" depart="418" />    <trip id="