
        <routes>
            <vType id="car" accel="0.8" decel="4.5" sigma="0.5" length="5" minGap="2.5" maxSpeed="15" guiShape="passenger"/>
            <trip id="eastTop___southLeft_0" type="car" from="eastTop___intersectionNE" to="intersectionSW___southLeft" depart="0" />    <trip id="eastTop___southRight_1" type="car" from="eastTop___intersectionNE" to="intersectionSE___southRight" depart="1" />    <trip id="westBottom___northLeft_1" type="car" from="westBottom___intersectionSW" to="intersectionNW___northLeft" depart="1" />    <trip id="eastTop___southLeft_4" type="car" from="eastTop___intersectionNE" to="intersectionSW___southLeft" depart="4" />    <trip id="westTop___westBottom_4" type="car" from="westTop___intersectionNW" to="intersectionSW___westBottom" depart="4" />    <trip id="westTop___eastTop_5" type="car" from="westTop___intersectionNW" to="intersectionNE___eastTop" depart="5" />    <trip id="eastBottom___northRight_6" type="car" from="eastBottom___intersectionSE" to="intersectionNE___northRight" depart="6" />    <trip id="westBottom___westTop_9" type="car" from="westBottom___intersectionSW" to="intersectionNW___westTop" depart="9" />    <trip id="westBottom___eastBottom_15" type="car" from="westBottom___intersectionSW" to="intersectionSE___eastBottom" depart="15" />    <trip id="eastBottom___southLeft_17" type="car" from="eastBottom___intersectionSE" to="intersectionSW___southLeft" depart="17" />    <trip id="southRight___westBottom_24" type="car" from="southRight___intersectionSE" to="intersectionSW___westBottom" depart="24" />    <trip id="southRight___eastBottom_25" type="car" from="southRight___intersectionSE" to="intersectionSE___eastBottom" depart="25" />    <trip id="northRight___southLeft_26" type="car" from="northRight___intersectionNE" to="intersectionSW___southLeft" depart="26" />    <trip id="eastTop___southLeft_27" type="car" from="eastTop___intersectionNE" to="intersectionSW___southLeft" depart="27" />    <trip id="northRight___southLeft_27" type="car" from="northRight___intersectionNE" to="intersectionSW___southLeft" depart="27" />    <trip id="northLeft___eastBottom_30" type="car" from="northLeft___intersectionNW" to="intersectionSE___eastBottom" depart="30" />    <trip id="southLeft___northRight_32" type="car" from="southLeft___intersectionSW" to="intersectionNE___northRight" depart="32" />    <trip id="westBottom___southLeft_33" type="car" from="westBottom___intersectionSW" to="intersectionSW___southLeft" depart="33" />    <trip id="southLeft___southRight_38" type="car" from="southLeft___intersectionSW" to="intersectionSE___southRight" depart="38" />    <trip id="eastTop___eastBottom_39" type="car" from="eastTop___intersectionNE" to="intersectionSE___eastBottom" depart="39" />    <trip id="northRight___northLeft_39" type="car" from="northRight___intersectionNE" to="intersectionNW___northLeft" depart="39" />    <trip id="southLeft___eastTop_41" type="car" from="southLeft___intersectionSW" to="intersectionNE___eastTop" depart="41" />    <trip id="northLeft___eastBottom_42" type="car" from="northLeft___intersectionNW" to="intersectionSE___eastBottom" depart="42" />    <trip id="eastBottom___northLeft_44" type="car" from="eastBottom___intersectionSE" to="intersectionNW___northLeft" depart="44" />    <trip id="northRight___eastBottom_53" type="car" from="northRight___intersectionNE" to="intersectionSE___eastBottom" depart="53" />    <trip id="westBottom___eastTop_53" type="car" from="westBottom___intersectionSW" to="intersectionNE___eastTop" depart="53" />    <trip id="eastTop___northRight_56" type="car" from="eastTop___intersectionNE" to="intersectionNE___northRight" depart="56" />    <trip id="eastTop___southRight_57" type="car" from="eastTop___intersectionNE" to="intersectionSE___southRight" depart="57" />    <trip id="northLeft___southRight_57" type="car" from="northLeft___intersectionNW" to="intersectionSE___southRight" depart="57" />    <trip id="northRight___eastTop_57" type="car" from="northRight___intersectionNE" to="intersectionNE___eastTop" depart="57" />    <trip id="eastTop___southRight_60" type="car" from="eastTop___intersectionNE" to="intersectionSE___southRight" depart="60" />    <trip id="northLeft___eastTop_62" type="car" from="northLeft___intersectionNW" to="intersectionNE___eastTop" depart="62" />    <trip id="westTop___eastTop_63" type="car" from="westTop___intersectionNW" to="intersectionNE___eastTop" depart="63" />    <trip id="eastBottom___southLeft_68" type="car" from="eastBottom___intersectionSE" to="intersectionSW___southLeft" depart="68" />    <trip id="eastTop___southLeft_69" type="car" from="eastTop___intersectionNE" to="intersectionSW___southLeft" depart="69" />    <trip id="southLeft___eastTop_70" type="car" from="southLeft___intersectionSW" to="intersectionNE___eastTop" depart="70" />    <trip id="southRight___westTop_70" type="car" from="southRight___intersectionSE" to="intersectionNW___westTop" depart="70" />    <trip id="westTop___southRight_72" type="car" from="westTop___intersectionNW" to="intersectionSE___southRight" depart="72" />    <trip id="eastTop___northLeft_74" type="car" from="eastTop___intersectionNE" to="intersectionNW___northLeft" depart="74" />    <trip id="westTop___southLeft_79" type="car" from="westTop___intersectionNW" to="intersectionSW___southLeft" depart="79" />    <trip id="eastBottom___southRight_80" type="car" from="eastBottom___intersectionSE" to="intersectionSE___southRight" depart="80" />    <trip id="eastTop___southLeft_80" type="car" from="eastTop___intersectionNE" to="intersectionSW___southLeft" depart="80" />    <trip id="northRight___eastTop_81" type="car" from="northRight___intersectionNE" to="intersectionNE___eastTop" depart="81" />    <trip id="eastBottom___eastTop_87" type="car" from="eastBottom___intersectionSE" to="intersectionNE___eastTop" depart="87" />    <trip id="southLeft___eastBottom_88" type="car" from="southLeft___intersectionSW" to="intersectionSE___eastBottom" depart="88" />    <trip id="northLeft___westBottom_89" type="car" from="northLeft___intersectionNW" to="intersectionSW___westBottom" depart="89" />    <trip id="northRight___westBottom_89" type="car" from="northRight___intersectionNE" to="intersectionSW___westBottom" depart="89" />    <trip id="southRight___eastBottom_91" type="car" from="southRight___intersectionSE" to="intersectionSE___eastBottom" depart="91" />    <trip id="southLeft___westTop_92" type="car" from="southLeft___intersectionSW" to="intersectionNW___westTop" depart="92" />    <trip id="southRight___eastTop_92" type="car" from="southRight___intersectionSE" to="intersectionNE___eastTop" depart="92" />    <trip id="northLeft___northRight_94" type="car" from="northLeft___intersectionNW" to="intersectionNE___northRight" depart="94" />    <trip id="westBottom___southLeft_98" type="car" from="westBottom___intersectionSW" to="intersectionSW___southLeft" depart="98" />    <trip id="eastBottom___southRight_99" type="car" from="eastBottom___intersectionSE" to="intersectionSE___southRight" depart="99" />    <trip id="northLeft___northRight_99" type="car" from="northLeft___intersectionNW" to="intersectionNE___northRight" depart="99" />    <trip id="northRight___westBottom_103" type="car" from="northRight___intersectionNE" to="intersectionSW___westBottom" depart="103" />    <trip id="southLeft___northLeft_106" type="car" from="southLeft___intersectionSW" to="intersectionNW___northLeft" depart="106" />    <trip id="southLeft___westBottom_111" type="car" from="southLeft___intersectionSW" to="intersectionSW___westBottom" depart="111" />    <trip id="northLeft___southLeft_112" type="car" from="northLeft___intersectionNW" to="intersectionSW___southLeft" depart="112" />    <trip id="southLeft___northRight_112" type="car" from="southLeft___intersectionSW" to="intersectionNE___northRight" depart="112" />    <trip id="eastBottom___southRight_113" type="car" from="eastBottom___intersectionSE" to="intersectionSE___southRight" depart="113" />    <trip id="southRight___northLeft_114" type="car" from="southRight___intersectionSE" to="intersectionNW___northLeft" depart="114" />    <trip id="westBottom___northLeft_114" type="car" from="westBottom___intersectionSW" to="intersectionNW___northLeft" depart="114" />    <trip id="northLeft___eastBottom_115" type="car" from="northLeft___intersectionNW" to="intersectionSE___eastBottom" depart="115" />    <trip id="northRight___northLeft_119" type="car" from="northRight___intersectionNE" to="intersectionNW___northLeft" depart="119" />    <trip id="northLeft___eastTop_123" type="car" from="northLeft___intersectionNW" to="intersectionNE___eastTop" depart="123" />    <trip id="northRight___southRight_126" type="car" from="northRight___intersectionNE" to="intersectionSE___southRight" depart="126" />    <trip id="eastTop___westTop_127" type="car" from="eastTop___intersectionNE" to="intersectionNW___westTop" depart="127" />    <trip id="westBottom___northLeft_127" type="car" from="westBottom___intersectionSW" to="intersectionNW___northLeft" depart="127" />    <trip id="northLeft___westBottom_128" type="car" from="northLeft___intersectionNW" to="intersectionSW___westBottom" depart="128" />    <trip id="eastBottom___westBottom_129" type="car" from="eastBottom___intersectionSE" to="intersectionSW___westBottom" depart="129" />    <trip id="eastTop___northRight_129" type="car" from="eastTop___intersectionNE" to="intersectionNE___northRight" depart="129" />    <trip id="northLeft___eastBottom_129" type="car" from="northLeft___intersectionNW" to="intersectionSE___eastBottom" depart="129" />    <trip id="northLeft___eastBottom_133" type="car" from="northLeft___intersectionNW" to="intersectionSE___eastBottom" depart="133" />    <trip id="southRight___eastTop_134" type="car" from="southRight___intersectionSE" to="intersectionNE___eastTop" depart="134" />    <trip id="eastTop___westBottom_135" type="car" from="eastTop___intersectionNE" to="intersectionSW___westBottom" depart="135" />    <trip id="eastBottom___southLeft_138" type="car" from="eastBottom___intersectionSE" to="intersectionSW___southLeft" depart="138" />    <trip id="northLeft___westTop_140" type="car" from="northLeft___intersectionNW" to="intersectionNW___westTop" depart="140" />    <trip id="eastTop___northLeft_144" type="car" from="eastTop___intersectionNE" to="intersectionNW___northLeft" depart="144" />    <trip id="northRight___westBottom_153" type="car" from="northRight___intersectionNE" to="intersectionSW___westBottom" depart="153" />    <trip id="eastTop___eastBottom_160" type="car" from="eastTop___intersectionNE" to="intersectionSE___eastBottom" depart="160" />    <trip id="westTop___westBottom_164" type="car" from="westTop___intersectionNW" to="intersectionSW___westBottom" depart="164" />    <trip id="eastBottom___northLeft_165" type="car" from="eastBottom___intersectionSE" to="intersectionNW___northLeft" depart="165" />    <trip id="southLeft___southRight_165" type="car" from="southLeft___intersectionSW" to="intersectionSE___southRight" depart="165" />    <trip id="northLeft___eastTop_167" type="car" from="northLeft___intersectionNW" to="intersectionNE___eastTop" depart="167" />    <trip id="westTop___eastTop_168" type="car" from="westTop___intersectionNW" to="intersectionNE___eastTop" depart="168" />    <trip id="southLeft___northRight_169" type="car" from="southLeft___intersectionSW" to="intersectionNE___northRight" depart="169" />    <trip id="westTop___southLeft_170" type="car" from="westTop___intersectionNW" to="intersectionSW___southLeft" depart="170" />    <trip id="eastTop___northRight_171" type="car" from="eastTop___intersectionNE" to="intersectionNE___northRight" depart="171" />    <trip id="westTop___westBottom_171" type="car" from="westTop___intersectionNW" to="intersectionSW___westBottom" depart="171" />    <trip id="eastTop___southRight_172" type="car" from="eastTop___intersectionNE" to="intersectionSE___southRight" depart="172" />    <trip id="southLeft___northRight_172" type="car" from="southLeft___intersectionSW" to="intersectionNE___northRight" depart="172" />    <trip id="eastTop___westBottom_186" type="car" from="eastTop___intersectionNE" to="intersectionSW___westBottom" depart="186" />    <trip id="eastBottom___southRight_188" type="car" from="eastBottom___intersectionSE" to="intersectionSE___southRight" depart="188" />    <trip id="eastTop___westTop_190" type="car" from="eastTop___intersectionNE" to="intersectionNW___westTop" depart="190" />    <trip id="westTop___westBottom_190" type="car" from="westTop___intersectionNW" to="intersectionSW___westBottom" depart="190" />    <trip id="westTop___northLeft_191" type="car" from="westTop___intersectionNW" to="intersectionNW___northLeft" depart="191" />    <trip id="southLeft___northRight_200" type="car" from="southLeft___intersectionSW" to="intersectionNE___northRight" depart="200" />    <trip id="eastTop___westTop_202" type="car" from="eastTop___intersectionNE" to="intersectionNW___westTop" depart="202" />    <trip id="northLeft___eastTop_203" type="car" from="northLeft___intersectionNW" to="intersectionNE___eastTop" depart="203" />    <trip id="eastBottom___northLeft_209" type="car" from="eastBottom___intersectionSE" to="intersectionNW___northLeft" depart="209" />    <trip id="southLeft___northLeft_209" type="car" from="southLeft___intersectionSW" to="intersectionNW___northLeft" depart="209" />    <trip id="southLeft___westTop_211" type="car" from="southLeft___intersectionSW" to="intersectionNW___westTop" depart="211" />    <trip id="westBottom___northLeft_211" type="car" from="westBottom___intersectionSW" to="intersectionNW___northLeft" depart="211" />    <trip id="westTop___eastTop_213" type="car" from="westTop___intersectionNW" to="intersectionNE___eastTop" depart="213" />    <trip id="westTop___eastBottom_215" type="car" from="westTop___intersectionNW" to="intersectionSE___eastBottom" depart="215" />    <trip id="northRight___westBottom_216" type="car" from="northRight___intersectionNE" to="intersectionSW___westBottom" depart="216" />    <trip id="northRight___southRight_217" type="car" from="northRight___intersectionNE" to="intersectionSE___southRight" depart="217" />    <trip id="eastTop___northRight_218" type="car" from="eastTop___intersectionNE" to="intersectionNE___northRight" depart="218" />    <trip id="northLeft___eastTop_220" type="car" from="northLeft___intersectionNW" to="intersectionNE___eastTop" depart="220" />    <trip id="northRight___northLeft_221" type="car" from="northRight___intersectionNE" to="intersectionNW___northLeft" depart="221" />    <trip id="southRight___westBottom_221" type="car" from="southRight___intersectionSE" to="intersectionSW___westBottom" depart="221" />    <trip id="westTop___southLeft_223" type="car" from="westTop___intersectionNW" to="intersectionSW___southLeft" depart="223" />    <trip id="eastTop___southRight_224" type="car" from="eastTop___intersectionNE" to="intersectionSE___southRight" depart="224" />    <trip id="southRight___westBottom_224" type="car" from="southRight___intersectionSE" to="intersectionSW___westBottom" depart="224" />    <trip id="westTop___northLeft_229" type="car" from="westTop___intersectionNW" to="intersectionNW___northLeft" depart="229" />    <trip id="eastBottom___southLeft_231" type="car" from="eastBottom___intersectionSE" to="intersectionSW___southLeft" depart="231" />    <trip id="eastBottom___eastTop_232" type="car" from="eastBottom___intersectionSE" to="intersectionNE___eastTop" depart="232" />    <trip id="westTop___westBottom_232" type="car" from="westTop___intersectionNW" to="intersectionSW___westBottom" depart="232" />    <trip id="northRight___northLeft_236" type="car" from="northRight___intersectionNE" to="intersectionNW___northLeft" depart="236" />    <trip id="northLeft___eastBottom_238" type="car" from="northLeft___intersectionNW" to="intersectionSE___eastBottom" depart="238" />    <trip id="southLeft___southRight_241" type="car" from="southLeft___intersectionSW" to="intersectionSE___southRight" depart="241" />    <trip id="eastBottom___southLeft_242" type="car" from="eastBottom___intersectionSE" to="intersectionSW___southLeft" depart="242" />    <trip id="eastTop___southLeft_243" type="car" from="eastTop___intersectionNE" to="intersectionSW___southLeft" depart="243" />    <trip id="eastBottom___northRight_244" type="car" from="eastBottom___intersectionSE" to="intersectionNE___northRight" depart="244" />    <trip id="westBottom___southLeft_251" type="car" from="westBottom___intersectionSW" to="intersectionSW___southLeft" depart="251" />    <trip id="eastTop___southLeft_253" type="car" from="eastTop___intersectionNE" to="intersectionSW___southLeft" depart="253" />    <trip id="northLeft___westBottom_254" type="car" from="northLeft___intersectionNW" to="intersectionSW___westBottom" depart="254" />    <trip id="southRight___eastBottom_255" type="car" from="southRight___intersectionSE" to="intersectionSE___eastBottom" depart="255" />    <trip id="westBottom___northRight_256" type="car" from="westBottom___intersectionSW" to="intersectionNE___northRight" depart="256" />    <trip id="northLeft___westBottom_258" type="car" from="northLeft___intersectionNW" to="intersectionSW___westBottom" depart="258" />    <trip id="eastTop___westTop_264" type="car" from="eastTop___intersectionNE" to="intersectionNW___westTop" depart="264" />    <trip id="westBottom___southLeft_264" type="car" from="westBottom___intersectionSW" to="intersectionSW___southLeft" depart="264" />    <trip id="westTop___westBottom_264" type="car" from="westTop___intersectionNW" to="intersectionSW___westBottom" depart="264" />    <trip id="westBottom___eastBottom_265" type="car" from="westBottom___intersectionSW" to="intersectionSE___eastBottom" depart="265" />    <trip id="eastTop___southRight_269" type="car" from="eastTop___intersectionNE" to="intersectionSE___southRight" depart="269" />    <trip id="southRight___northRight_269" type="car" from="southRight___intersectionSE" to="intersectionNE___northRight" depart="269" />    <trip id="eastTop___northRight_270" type="car" from="eastTop___intersectionNE" to="intersectionNE___northRight" depart="270" />    <trip id="eastTop___northLeft_271" type="car" from="eastTop___intersectionNE" to="intersectionNW___northLeft" depart="271" />    <trip id="northLeft___southRight_273" type="car" from="northLeft___intersectionNW" to="intersectionSE___southRight" depart="273" />    <trip id="northRight___northLeft_275" type="car" from="northRight___intersectionNE" to="intersectionNW___northLeft" depart="275" />    <trip id="northRight___westTop_283" type="car" from="northRight___intersectionNE" to="intersectionNW___westTop" depart="283" />    <trip id="westBottom___northRight_283" type="car" from="westBottom___intersectionSW" to="intersectionNE___northRight" depart="283" />    <trip id="westTop___southLeft_284" type="car" from="westTop___intersectionNW" to="intersectionSW___southLeft" depart="284" />    <trip id="northRight___northLeft_285" type="car" from="northRight___intersectionNE" to="intersectionNW___northLeft" depart="285" />    <trip id="southLeft___westTop_285" type="car" from="southLeft___intersectionSW" to="intersectionNW___westTop" depart="285" />    <trip id="eastBottom___westTop_286" type="car" from="eastBottom___intersectionSE" to="intersectionNW___westTop" depart="286" />    <trip id="eastTop___westBottom_292" type="car" from="eastTop___intersectionNE" to="intersectionSW___westBottom" depart="292" />    <trip id="southRight___westBottom_292" type="car" from="southRight___intersectionSE" to="intersectionSW___westBottom" depart="292" />    <trip id="eastTop___northLeft_296" type="car" from="eastTop___intersectionNE" to="intersectionNW___northLeft" depart="296" />    <trip id="southLeft___westBottom_296" type="car" from="southLeft___intersectionSW" to="intersectionSW___westBottom" depart="296" />    <trip id="eastBottom___southRight_299" type="car" from="eastBottom___intersectionSE" to="intersectionSE___southRight" depart="299" />    <trip id="southRight___eastTop_299" type="car" from="southRight___intersectionSE" to="intersectionNE___eastTop" depart="299" />    <trip id="southLeft___westBottom_300" type="car" from="southLeft___intersectionSW" to="intersectionSW___westBottom" depart="300" />    <trip id="eastBottom___westBottom_303" type="car" from="eastBottom___intersectionSE" to="intersectionSW___westBottom" depart="303" />    <trip id="southLeft___eastBottom_306" type="car" from="southLeft___intersectionSW" to="intersectionSE___eastBottom" depart="306" />    <trip id="northRight___southLeft_308" type="car" from="northRight___intersectionNE" to="intersectionSW___southLeft" depart="308" />    <trip id="westTop___eastTop_310" type="car" from="westTop___intersectionNW" to="intersectionNE___eastTop" depart="310" />    <trip id="westBottom___southLeft_311" type="car" from="westBottom___intersectionSW" to="intersectionSW___southLeft" depart="311" />    <trip id="southRight___westBottom_313" type="car" from="southRight___intersectionSE" to="intersectionSW___westBottom" depart="313" />    <trip id="southLeft___northRight_314" type="car" from="southLeft___intersectionSW" to="intersectionNE___northRight" depart="314" />    <trip id="northLeft___northRight_317" type="car" from="northLeft___intersectionNW" to="intersectionNE___northRight" depart="317" />    <trip id="westBottom___eastTop_319" type="car" from="westBottom___intersectionSW" to="intersectionNE___eastTop" depart="319" />    <trip id="southRight___eastTop_322" type="car" from="southRight___intersectionSE" to="intersectionNE___eastTop" depart="322" />    <trip id="eastBottom___northLeft_327" type="car" from="eastBottom___intersectionSE" to="intersectionNW___northLeft" depart="327" />    <trip id="eastTop___westTop_331" type="car" from="eastTop___intersectionNE" to="intersectionNW___westTop" depart="331" />    <trip id="westBottom___northLeft_332" type="car" from="westBottom___intersectionSW" to="intersectionNW___northLeft" depart="332" />    <trip id="northRight___southLeft_336" type="car" from="northRight___intersectionNE" to="intersectionSW___southLeft" depart="336" />    <trip id="northRight___northLeft_342" type="car" from="northRight___intersectionNE" to="intersectionNW___northLeft" depart="342" />    <trip id="southLeft___westTop_346" type="car" from="southLeft___intersectionSW" to="intersectionNW___westTop" depart="346" />    <trip id="southRight___southLeft_346" type="car" from="southRight___intersectionSE" to="intersectionSW___southLeft" depart="346" />    <trip id="westBottom___southLeft_346" type="car" from="westBottom___intersectionSW" to="intersectionSW___southLeft" depart="346" />    <trip id="northLeft___westTop_350" type="car" from="northLeft___intersectionNW" to="intersectionNW___westTop" depart="350" />    <trip id="eastTop___eastBottom_351" type="car" from="eastTop___intersectionNE" to="intersectionSE___eastBottom" depart="351" />    <trip id="northLeft___westTop_351" type="car" from="northLeft___intersectionNW" to="intersectionNW___westTop" depart="351" />    <trip id="westTop___eastBottom_354" type="car" from="westTop___intersectionNW" to="intersectionSE___eastBottom" depart="354" />    <trip id="westBottom___southRight_355" type="car" from="westBottom___intersectionSW" to="intersectionSE___southRight" depart="355" />    <trip id="southLeft___northLeft_357" type="car" from="southLeft___intersectionSW" to="intersectionNW___northLeft" depart="357" />    <trip id="westTop___southLeft_357" type="car" from="westTop___intersectionNW" to="intersectionSW___southLeft" depart="357" />    <trip id="northRight___eastTop_363" type="car" from="northRight___intersectionNE" to="intersectionNE___eastTop" depart="363" />    <trip id="southRight___southLeft_369" type="car" from="southRight___intersectionSE" to="intersectionSW___southLeft" depart="369" />    <trip id="northLeft___eastTop_376" type="car" from="northLeft___intersectionNW" to="intersectionNE___eastTop" depart="376" />    <trip id="eastTop___eastBottom_377" type="car" from="eastTop___intersectionNE" to="intersectionSE___eastBottom" depart="377" />    <trip id="northLeft___eastTop_377" type="car" from="northLeft___intersectionNW" to="intersectionNE___eastTop" depart="377" />    <trip id="eastTop___southRight_378" type="car" from="eastTop___intersectionNE" to="intersectionSE___southRight" depart="378" />    <trip id="westTop___eastTop_379" type="car" from="westTop___intersectionNW" to="intersectionNE___eastTop" depart="379" />    <trip id="southRight___westBottom_381" type="car" from="southRight___intersectionSE" to="intersectionSW___westBottom" depart="381" />    <trip id="westTop___southRight_382" type="car" from="westTop___intersectionNW" to="intersectionSE___southRight" depart="382" />    <trip id="northLeft___westBottom_383" type="car" from="northLeft___intersectionNW" to="intersectionSW___westBottom" depart="383" />    <trip id="westBottom___southLeft_392" type="car" from="westBottom___intersectionSW" to="intersectionSW___southLeft" depart="392" />    <trip id="southLeft___northRight_400" type="car" from="southLeft___intersectionSW" to="intersectionNE___northRight" depart="400" />    <trip id="westBottom___northRight_403" type="car" from="westBottom___intersectionSW" to="intersectionNE___northRight" depart="403" />    <trip id="northRight___westBottom_406" type="car" from="northRight___intersectionNE" to="intersectionSW___westBottom" depart="406" />    <trip id="eastTop___eastBottom_407" type="car" from="eastTop___intersectionNE" to="intersectionSE___eastBottom" depart="407" />    <trip id="eastTop___northLeft_409" type="car" from="eastTop___intersectionNE" to="intersectionNW___northLeft" depart="409" />    <trip id="westBottom___northRight_412" type="car" from="westBottom___intersectionSW" to="intersectionNE___northRight" depart="412" />    <trip id="southLeft___westBottom_413" type="car" from="southLeft___intersectionSW" to="intersectionSW___westBottom" depart="413" />    <trip id="eastTop___southLeft_414" type="car" from="eastTop___intersectionNE" to="intersectionSW___southLeft" depart="414" />    <trip id="northRight___westTop_416" type="car" from="northRight___intersectionNE" to="intersectionNW___westTop" depart="416" />    <trip id="westBottom___eastBottom_417" type="car" from="westBottom___intersectionSW" to="intersectionSE___eastBottom" depart="417" />    <trip id="northLeft___southRight_418" type="car" from="northLeft___intersectionNW" to="intersectionSE___southRight" depart="418" />    <trip id="westBottom___westTop_422" type="car" from="westBottom___intersectionSW" to="intersectionNW___westTop" depart="422" />    <trip id="westBottom___eastTop_425" type="car" from="westBottom___intersectionSW" to="intersectionNE___eastTop" depart="425" />    <trip id="northLeft___southRight_427" type="car" from="northLeft___intersectionNW" to="intersectionSE___southRight" depart="427" />    <trip id="southRight___southLeft_429" type="car" from="southRight___intersectionSE" to="intersectionSW___southLeft" depart="429" />    <trip id="northLeft___eastBottom_431" type="car" from="northLeft___intersectionNW" to="intersectionSE___eastBottom" depart="431" />    <trip id="northLeft___southLeft_432" type="car" from="northLeft___intersectionNW" to="intersectionSW___southLeft" depart="432" />    <trip id="northLeft___southLeft_433" type="car" from="northLeft___intersectionNW" to="intersectionSW___southLeft" depart="433" />    <trip id="westBottom___southRight_435" type="car" from="westBottom___intersectionSW" to="intersectionSE___southRight" depart="435" />    <trip id="eastBottom___northLeft_452" type="car" from="eastBottom___intersectionSE" to="intersectionNW___northLeft" depart="452" />    <trip id="westBottom___westTop_454" type="car" from="westBottom___intersectionSW" to="intersectionNW___westTop" depart="454" />    <trip id="northRight___westTop_455" type="car" from="northRight___intersectionNE" to="intersectionNW___westTop" depart="455" />    <trip id="westBottom___northLeft_468" type="car" from="westBottom___intersectionSW" to="intersectionNW___northLeft" depart="468" />    <trip id="westTop___eastTop_469" type="car" from="westTop___intersectionNW" to="intersectionNE___eastTop" depart="469" />    <trip id="southLeft___eastBottom_470" type="car" from="southLeft___intersectionSW" to="intersectionSE___eastBottom" depart="470" />    <trip id="eastTop___eastBottom_473" type="car" from="eastTop___intersectionNE" to="intersectionSE___eastBottom" depart="473" />    <trip id="eastBottom___westBottom_474" type="car" from="eastBottom___intersectionSE" to="intersectionSW___westBottom" depart="474" />    <trip id="northLeft___eastBottom_474" type="car" from="northLeft___intersectionNW" to="intersectionSE___eastBottom" depart="474" />    <trip id="southLeft___northRight_476" type="car" from="southLeft___intersectionSW" to="intersectionNE___northRight" depart="476" />    <trip id="eastBottom___northRight_491" type="car" from="eastBottom___intersectionSE" to="intersectionNE___northRight" depart="491" />    <trip id="eastTop___northLeft_491" type="car" from="eastTop___intersectionNE" to="intersectionNW___northLeft" depart="491" />    <trip id="westTop___northRight_492" type="car" from="westTop___intersectionNW" to="intersectionNE___northRight" depart="492" />    <trip id="eastBottom___northRight_496" type="car" from="eastBottom___intersectionSE" to="intersectionNE___northRight" depart="496" />    <trip id="southLeft___eastTop_499" type="car" from="southLeft___intersectionSW" to="intersectionNE___eastTop" depart="499" />    <trip id="eastTop___eastBottom_500" type="car" from="eastTop___intersectionNE" to="intersectionSE___eastBottom" depart="500" />    <trip id="westTop___eastTop_500" type="car" from="westTop___intersectionNW" to="intersectionNE___eastTop" depart="500" />    <trip id="northRight___southRight_504" type="car" from="northRight___intersectionNE" to="intersect