
        <routes>
            <vType id="car" accel="0.8" decel="4.5" sigma="0.5" length="5" minGap="2.5" maxSpeed="15" guiShape="passenger"/>
            <trip id="eastBottom___northRight_0" type="car" from="eastBottom___intersectionSE" to="intersectionNE___northRight" depart="0" />    <trip id="southLeft___northLeft_3" type="car" from="southLeft___intersectionSW" to="intersectionNW___northLeft" depart="3" />    <trip id="westTop___southLeft_3" type="car" from="westTop___intersectionNW" to="intersectionSW___southLeft" depart="3" />    <trip id="northLeft___westTop_5" type="car" from="northLeft___intersectionNW" to="intersectionNW___westTop" depart="5" />    <trip id="eastBottom___southLeft_10" type="car" from="eastBottom___intersectionSE" to="intersectionSW___southLeft" depart="10" />    <trip id="eastBottom___northLeft_12" type="car" from="eastBottom___intersectionSE" to="intersectionNW___northLeft" depart="12" />    <trip id="southLeft___eastTop_12" type="car" from="southLeft___intersectionSW" to="intersectionNE___eastTop" depart="12" />    <trip id="northRight___westBottom_14" type="car" from="northRight___intersectionNE" to="intersectionSW___westBottom" depart="14" />    <trip id="eastBottom___eastTop_23" type="car" from="eastBottom___intersectionSE" to="intersectionNE___eastTop" depart="23" />    <trip id="southRight___westTop_23" type="car" from="southRight___intersectionSE" to="intersectionNW___westTop" depart="23" />    <trip id="westTop___eastTop_23" type="car" from="westTop___intersectionNW" to="intersectionNE___eastTop" depart="23" />    <trip id="westTop___westBottom_26" type="car" from="westTop___intersectionNW" to="intersectionSW___westBottom" depart="26" />    <trip id="southLeft___southRight_27" type="car" from="southLeft___intersectionSW" to="intersectionSE___southRight" depart="27" />    <trip id="eastBottom___northRight_28" type="car" from="eastBottom___intersectionSE" to="intersectionNE___northRight" depart="28" />    <trip id="northRight___eastTop_28" type="car" from="northRight___intersectionNE" to="intersectionNE___eastTop" depart="28" />    <trip id="westTop___southRight_36" type="car" from="westTop___intersectionNW" to="intersectionSE___southRight" depart="36" />    <trip id="southLeft___westTop_38" type="car" from="southLeft___intersectionSW" to="intersectionNW___westTop" depart="38" />    <trip id="eastBottom___southLeft_39" type="car" from="eastBottom___intersectionSE" to="intersectionSW___southLeft" depart="39" />    <trip id="eastBottom___southRight_40" type="car" from="eastBottom___intersectionSE" to="intersectionSE___southRight" depart="40" />    <trip id="eastTop___westBottom_40" type="car" from="eastTop___intersectionNE" to="intersectionSW___westBottom" depart="40" />    <trip id="northLeft___eastTop_44" type="car" from="northLeft___intersectionNW" to="intersectionNE___eastTop" depart="44" />    <trip id="southLeft___eastTop_45" type="car" from="southLeft___intersectionSW" to="intersectionNE___eastTop" depart="45" />    <trip id="southLeft___southRight_46" type="car" from="southLeft___intersectionSW" to="intersectionSE___southRight" depart="46" />    <trip id="eastBottom___westTop_48" type="car" from="eastBottom___intersectionSE" to="intersectionNW___westTop" depart="48" />    <trip id="southLeft___westBottom_50" type="car" from="southLeft___intersectionSW" to="intersectionSW___westBottom" depart="50" />    <trip id="westBottom___southRight_52" type="car" from="westBottom___intersectionSW" to="intersectionSE___southRight" depart="52" />    <trip id="eastTop___westBottom_54" type="car" from="eastTop___intersectionNE" to="intersectionSW___westBottom" depart="54" />    <trip id="northRight___southLeft_54" type="car" from="northRight___intersectionNE" to="intersectionSW___southLeft" depart="54" />    <trip id="southLeft___southRight_56" type="car" from="southLeft___intersectionSW" to="intersectionSE___southRight" depart="56" />    <trip id="eastBottom___northRight_57" type="car" from="eastBottom___intersectionSE" to="intersectionNE___northRight" depart="57" />    <trip id="westTop___northRight_57" type="car" from="westTop___intersectionNW" to="intersectionNE___northRight" depart="57" />    <trip id="northRight___westBottom_60" type="car" from="northRight___intersectionNE" to="intersectionSW___westBottom" depart="60" />    <trip id="eastBottom___eastTop_64" type="car" from="eastBottom___intersectionSE" to="intersectionNE___eastTop" depart="64" />    <trip id="westTop___northLeft_65" type="car" from="westTop___intersectionNW" to="intersectionNW___northLeft" depart="65" />    <trip id="westBottom___eastBottom_68" type="car" from="westBottom___intersectionSW" to="intersectionSE___eastBottom" depart="68" />    <trip id="northRight___eastBottom_70" type="car" from="northRight___intersectionNE" to="intersectionSE___eastBottom" depart="70" />    <trip id="westBottom___southRight_70" type="car" from="westBottom___intersectionSW" to="intersectionSE___southRight" depart="70" />    <trip id="northLeft___southLeft_74" type="car" from="northLeft___intersectionNW" to="intersectionSW___southLeft" depart="74" />    <trip id="northRight___eastTop_75" type="car" from="northRight___intersectionNE" to="intersectionNE___eastTop" depart="75" />    <trip id="westTop___southRight_78" type="car" from="westTop___intersectionNW" to="intersectionSE___southRight" depart="78" />    <trip id="eastBottom___southLeft_79" type="car" from="eastBottom___intersectionSE" to="intersectionSW___southLeft" depart="79" />    <trip id="northRight___westTop_81" type="car" from="northRight___intersectionNE" to="intersectionNW___westTop" depart="81" />    <trip id="westBottom___eastBottom_82" type="car" from="westBottom___intersectionSW" to="intersectionSE___eastBottom" depart="82" />    <trip id="northRight___southLeft_87" type="car" from="northRight___intersectionNE" to="intersectionSW___southLeft" depart="87" />    <trip id="westTop___northRight_88" type="car" from="westTop___intersectionNW" to="intersectionNE___northRight" depart="88" />    <trip id="eastBottom___westTop_90" type="car" from="eastBottom___intersectionSE" to="intersectionNW___westTop" depart="90" />    <trip id="northRight___eastBottom_92" type="car" from="northRight___intersectionNE" to="intersectionSE___eastBottom" depart="92" />    <trip id="eastTop___eastBottom_93" type="car" from="eastTop___intersectionNE" to="intersectionSE___eastBottom" depart="93" />    <trip id="westTop___northLeft_93" type="car" from="westTop___intersectionNW" to="intersectionNW___northLeft" depart="93" />    <trip id="northLeft___southLeft_98" type="car" from="northLeft___intersectionNW" to="intersectionSW___southLeft" depart="98" />    <trip id="southLeft___eastTop_98" type="car" from="southLeft___intersectionSW" to="intersectionNE___eastTop" depart="98" />    <trip id="southRight___eastTop_99" type="car" from="southRight___intersectionSE" to="intersectionNE___eastTop" depart="99" />    <trip id="eastTop___southLeft_100" type="car" from="eastTop___intersectionNE" to="intersectionSW___southLeft" depart="100" />    <trip id="northRight___westBottom_100" type="car" from="northRight___intersectionNE" to="intersectionSW___westBottom" depart="100" />    <trip id="westTop___northLeft_100" type="car" from="westTop___intersectionNW" to="intersectionNW___northLeft" depart="100" />    <trip id="eastTop___southRight_107" type="car" from="eastTop___intersectionNE" to="intersectionSE___southRight" depart="107" />    <trip id="eastBottom___westBottom_112" type="car" from="eastBottom___intersectionSE" to="intersectionSW___westBottom" depart="112" />    <trip id="southLeft___westTop_117" type="car" from="southLeft___intersectionSW" to="intersectionNW___westTop" depart="117" />    <trip id="northLeft___westBottom_121" type="car" from="northLeft___intersectionNW" to="intersectionSW___westBottom" depart="121" />    <trip id="westBottom___southRight_123" type="car" from="westBottom___intersectionSW" to="intersectionSE___southRight" depart="123" />    <trip id="eastTop___southLeft_125" type="car" from="eastTop___intersectionNE" to="intersectionSW___southLeft" depart="125" />    <trip id="eastBottom___westBottom_127" type="car" from="eastBottom___intersectionSE" to="intersectionSW___westBottom" depart="127" />    <trip id="eastTop___westBottom_129" type="car" from="eastTop___intersectionNE" to="intersectionSW___westBottom" depart="129" />    <trip id="northRight___westTop_131" type="car" from="northRight___intersectionNE" to="intersectionNW___westTop" depart="131" />    <trip id="southLeft___westBottom_136" type="car" from="southLeft___intersectionSW" to="intersectionSW___westBottom" depart="136" />    <trip id="southRight___westTop_136" type="car" from="southRight___intersectionSE" to="intersectionNW___westTop" depart="136" />    <trip id="eastBottom___eastTop_139" type="car" from="eastBottom___intersectionSE" to="intersectionNE___eastTop" depart="139" />    <trip id="eastTop___southLeft_139" type="car" from="eastTop___intersectionNE" to="intersectionSW___southLeft" depart="139" />    <trip id="westBottom___eastTop_139" type="car" from="westBottom___intersectionSW" to="intersectionNE___eastTop" depart="139" />    <trip id="eastBottom___southRight_142" type="car" from="eastBottom___intersectionSE" to="intersectionSE___southRight" depart="142" />    <trip id="westBottom___eastTop_142" type="car" from="westBottom___intersectionSW" to="intersectionNE___eastTop" depart="142" />    <trip id="westTop___eastBottom_145" type="car" from="westTop___intersectionNW" to="intersectionSE___eastBottom" depart="145" />    <trip id="southLeft___northLeft_152" type="car" from="southLeft___intersectionSW" to="intersectionNW___northLeft" depart="152" />    <trip id="eastTop___southLeft_156" type="car" from="eastTop___intersectionNE" to="intersectionSW___southLeft" depart="156" />    <trip id="northLeft___westTop_156" type="car" from="northLeft___intersectionNW" to="intersectionNW___westTop" depart="156" />    <trip id="northRight___westBottom_156" type="car" from="northRight___intersectionNE" to="intersectionSW___westBottom" depart="156" />    <trip id="southLeft___northLeft_158" type="car" from="southLeft___intersectionSW" to="intersectionNW___northLeft" depart="158" />    <trip id="westBottom___northLeft_159" type="car" from="westBottom___intersectionSW" to="intersectionNW___northLeft" depart="159" />    <trip id="eastBottom___westTop_162" type="car" from="eastBottom___intersectionSE" to="intersectionNW___westTop" depart="162" />    <trip id="westTop___northLeft_162" type="car" from="westTop___intersectionNW" to="intersectionNW___northLeft" depart="162" />    <trip id="northLeft___westBottom_164" type="car" from="northLeft___intersectionNW" to="intersectionSW___westBottom" depart="164" />    <trip id="westTop___westBottom_165" type="car" from="westTop___intersectionNW" to="intersectionSW___westBottom" depart="165" />    <trip id="eastBottom___northRight_172" type="car" from="eastBottom___intersectionSE" to="intersectionNE___northRight" depart="172" />    <trip id="northRight___northLeft_172" type="car" from="northRight___intersectionNE" to="intersectionNW___northLeft" depart="172" />    <trip id="northLeft___eastBottom_174" type="car" from="northLeft___intersectionNW" to="intersectionSE___eastBottom" depart="174" />    <trip id="westTop___southLeft_174" type="car" from="westTop___intersectionNW" to="intersectionSW___southLeft" depart="174" />    <trip id="southLeft___eastBottom_175" type="car" from="southLeft___intersectionSW" to="intersectionSE___eastBottom" depart="175" />    <trip id="westTop___eastTop_175" type="car" from="westTop___intersectionNW" to="intersectionNE___eastTop" depart="175" />    <trip id="northRight___southLeft_178" type="car" from="northRight___intersectionNE" to="intersectionSW___southLeft" depart="178" />    <trip id="westBottom___westTop_181" type="car" from="westBottom___intersectionSW" to="intersectionNW___westTop" depart="181" />    <trip id="northLeft___northRight_186" type="car" from="northLeft___intersectionNW" to="intersectionNE___northRight" depart="186" />    <trip id="southRight___eastTop_189" type="car" from="southRight___intersectionSE" to="intersectionNE___eastTop" depart="189" />    <trip id="westBottom___eastBottom_195" type="car" from="westBottom___intersectionSW" to="intersectionSE___eastBottom" depart="195" />    <trip id="westBottom___southLeft_196" type="car" from="westBottom___intersectionSW" to="intersectionSW___southLeft" depart="196" />    <trip id="northLeft___southRight_197" type="car" from="northLeft___intersectionNW" to="intersectionSE___southRight" depart="197" />    <trip id="northLeft___westBottom_202" type="car" from="northLeft___intersectionNW" to="intersectionSW___westBottom" depart="202" />    <trip id="southRight___eastBottom_205" type="car" from="southRight___intersectionSE" to="intersectionSE___eastBottom" depart="205" />    <trip id="eastTop___southRight_208" type="car" from="eastTop___intersectionNE" to="intersectionSE___southRight" depart="208" />    <trip id="northRight___eastBottom_210" type="car" from="northRight___intersectionNE" to="intersectionSE___eastBottom" depart="210" />    <trip id="northRight___southLeft_211" type="car" from="northRight___intersectionNE" to="intersectionSW___southLeft" depart="211" />    <trip id="southLeft___northLeft_213" type="car" from="southLeft___intersectionSW" to="intersectionNW___northLeft" depart="213" />    <trip id="northRight___southRight_215" type="car" from="northRight___intersectionNE" to="intersectionSE___southRight" depart="215" />    <trip id="southRight___northRight_216" type="car" from="southRight___intersectionSE" to="intersectionNE___northRight" depart="216" />    <trip id="northRight___eastTop_217" type="car" from="northRight___intersectionNE" to="intersectionNE___eastTop" depart="217" />    <trip id="southLeft___eastTop_221" type="car" from="southLeft___intersectionSW" to="intersectionNE___eastTop" depart="221" />    <trip id="westTop___southLeft_222" type="car" from="westTop___intersectionNW" to="intersectionSW___southLeft" depart="222" />    <trip id="westBottom___eastBottom_229" type="car" from="westBottom___intersectionSW" to="intersectionSE___eastBottom" depart="229" />    <trip id="southRight___westTop_231" type="car" from="southRight___intersectionSE" to="intersectionNW___westTop" depart="231" />    <trip id="eastBottom___westBottom_234" type="car" from="eastBottom___intersectionSE" to="intersectionSW___westBottom" depart="234" />    <trip id="southRight___westBottom_237" type="car" from="southRight___intersectionSE" to="intersectionSW___westBottom" depart="237" />    <trip id="northRight___southRight_239" type="car" from="northRight___intersectionNE" to="intersectionSE___southRight" depart="239" />    <trip id="southLeft___westBottom_239" type="car" from="southLeft___intersectionSW" to="intersectionSW___westBottom" depart="239" />    <trip id="southLeft___eastBottom_241" type="car" from="southLeft___intersectionSW" to="intersectionSE___eastBottom" depart="241" />    <trip id="westBottom___northLeft_244" type="car" from="westBottom___intersectionSW" to="intersectionNW___northLeft" depart="244" />    <trip id="westTop___eastTop_247" type="car" from="westTop___intersectionNW" to="intersectionNE___eastTop" depart="247" />    <trip id="eastTop___southRight_249" type="car" from="eastTop___intersectionNE" to="intersectionSE___southRight" depart="249" />    <trip id="southRight___westTop_251" type="car" from="southRight___intersectionSE" to="intersectionNW___westTop" depart="251" />    <trip id="westBottom___southLeft_253" type="car" from="westBottom___intersectionSW" to="intersectionSW___southLeft" depart="253" />    <trip id="eastTop___southLeft_254" type="car" from="eastTop___intersectionNE" to="intersectionSW___southLeft" depart="254" />    <trip id="westTop___southRight_258" type="car" from="westTop___intersectionNW" to="intersectionSE___southRight" depart="258" />    <trip id="eastTop___eastBottom_259" type="car" from="eastTop___intersectionNE" to="intersectionSE___eastBottom" depart="259" />    <trip id="southRight___southLeft_263" type="car" from="southRight___intersectionSE" to="intersectionSW___southLeft" depart="263" />    <trip id="westTop___southRight_267" type="car" from="westTop___intersectionNW" to="intersectionSE___southRight" depart="267" />    <trip id="southRight___northRight_273" type="car" from="southRight___intersectionSE" to="intersectionNE___northRight" depart="273" />    <trip id="northLeft___westTop_277" type="car" from="northLeft___intersectionNW" to="intersectionNW___westTop" depart="277" />    <trip id="westTop___northRight_277" type="car" from="westTop___intersectionNW" to="intersectionNE___northRight" depart="277" />    <trip id="southRight___westTop_279" type="car" from="southRight___intersectionSE" to="intersectionNW___westTop" depart="279" />    <trip id="southRight___eastBottom_287" type="car" from="southRight___intersectionSE" to="intersectionSE___eastBottom" depart="287" />    <trip id="westBottom___westTop_291" type="car" from="westBottom___intersectionSW" to="intersectionNW___westTop" depart="291" />    <trip id="westTop___eastBottom_291" type="car" from="westTop___intersectionNW" to="intersectionSE___eastBottom" depart="291" />    <trip id="westBottom___southLeft_297" type="car" from="westBottom___intersectionSW" to="intersectionSW___southLeft" depart="297" />    <trip id="northLeft___westBottom_299" type="car" from="northLeft___intersectionNW" to="intersectionSW___westBottom" depart="299" />    <trip id="northRight___northLeft_303" type="car" from="northRight___intersectionNE" to="intersectionNW___northLeft" depart="303" />    <trip id="southRight___eastBottom_303" type="car" from="southRight___intersectionSE" to="intersectionSE___eastBottom" depart="303" />    <trip id="eastTop___eastBottom_304" type="car" from="eastTop___intersectionNE" to="intersectionSE___eastBottom" depart="304" />    <trip id="northLeft___westTop_306" type="car" from="northLeft___intersectionNW" to="intersectionNW___westTop" depart="306" />    <trip id="eastTop___northRight_313" type="car" from="eastTop___intersectionNE" to="intersectionNE___northRight" depart="313" />    <trip id="eastBottom___eastTop_317" type="car" from="eastBottom___intersectionSE" to="intersectionNE___eastTop" depart="317" />    <trip id="northLeft___westTop_320" type="car" from="northLeft___intersectionNW" to="intersectionNW___westTop" depart="320" />    <trip id="westBottom___northRight_324" type="car" from="westBottom___intersectionSW" to="intersectionNE___northRight" depart="324" />    <trip id="eastBottom___westBottom_326" type="car" from="eastBottom___intersectionSE" to="intersectionSW___westBottom" depart="326" />    <trip id="southRight___eastBottom_328" type="car" from="southRight___intersectionSE" to="intersectionSE___eastBottom" depart="328" />    <trip id="westTop___southLeft_332" type="car" from="westTop___intersectionNW" to="intersectionSW___southLeft" depart="332" />    <trip id="southRight___northLeft_336" type="car" from="southRight___intersectionSE" to="intersectionNW___northLeft" depart="336" />    <trip id="southRight___eastBottom_339" type="car" from="southRight___intersectionSE" to="intersectionSE___eastBottom" depart="339" />    <trip id="northLeft___southRight_340" type="car" from="northLeft___intersectionNW" to="intersectionSE___southRight" depart="340" />    <trip id="southRight___westTop_340" type="car" from="southRight___intersectionSE" to="intersectionNW___westTop" depart="340" />    <trip id="eastBottom___northLeft_341" type="car" from="eastBottom___intersectionSE" to="intersectionNW___northLeft" depart="341" />    <trip id="southRight___eastBottom_341" type="car" from="southRight___intersectionSE" to="intersectionSE___eastBottom" depart="341" />    <trip id="westBottom___westTop_341" type="car" from="westBottom___intersectionSW" to="intersectionNW___westTop" depart="341" />    <trip id="northRight___northLeft_348" type="car" from="northRight___intersectionNE" to="intersectionNW___northLeft" depart="348" />    <trip id="westBottom___eastTop_350" type="car" from="westBottom___intersectionSW" to="intersectionNE___eastTop" depart="350" />    <trip id="eastTop___southRight_351" type="car" from="eastTop___intersectionNE" to="intersectionSE___southRight" depart="351" />    <trip id="northRight___eastBottom_351" type="car" from="northRight___intersectionNE" to="intersectionSE___eastBottom" depart="351" />    <trip id="northRight___northLeft_352" type="car" from="northRight___intersectionNE" to="intersectionNW___northLeft" depart="352" />    <trip id="westTop___eastBottom_354" type="car" from="westTop___intersectionNW" to="intersectionSE___eastBottom" depart="354" />    <trip id="northLeft___eastBottom_361" type="car" from="northLeft___intersectionNW" to="intersectionSE___eastBottom" depart="361" />    <trip id="southLeft___eastTop_363" type="car" from="southLeft___intersectionSW" to="intersectionNE___eastTop" depart="363" />    <trip id="eastBottom___westBottom_367" type="car" from="eastBottom___intersectionSE" to="intersectionSW___westBottom" depart="367" />    <trip id="northRight___southRight_368" type="car" from="northRight___intersectionNE" to="intersectionSE___southRight" depart="368" />    <trip id="westBottom___southLeft_379" type="car" from="westBottom___intersectionSW" to="intersectionSW___southLeft" depart="379" />    <trip id="northLeft___eastTop_380" type="car" from="northLeft___intersectionNW" to="intersectionNE___eastTop" depart="380" />    <trip id="westBottom___westTop_382" type="car" from="westBottom___intersectionSW" to="intersectionNW___westTop" depart="382" />    <trip id="southLeft___westBottom_383" type="car" from="southLeft___intersectionSW" to="intersectionSW___westBottom" depart="383" />    <trip id="eastTop___westBottom_386" type="car" from="eastTop___intersectionNE" to="intersectionSW___westBottom" depart="386" />    <trip id="eastBottom___southLeft_387" type="car" from="eastBottom___intersectionSE" to="intersectionSW___southLeft" depart="387" />    <trip id="eastTop___northRight_391" type="car" from="eastTop___intersectionNE" to="intersectionNE___northRight" depart="391" />    <trip id="westTop___southLeft_393" type="car" from="westTop___intersectionNW" to="intersectionSW___southLeft" depart="393" />    <trip id="northLeft___eastTop_394" type="car" from="northLeft___intersectionNW" to="intersectionNE___eastTop" depart="394" />    <trip id="southLeft___westTop_399" type="car" from="southLeft___intersectionSW" to="intersectionNW___westTop" depart="399" />    <trip id="northLeft___westTop_402" type="car" from="northLeft___intersectionNW" to="intersectionNW___westTop" depart="402" />    <trip id="northLeft___northRight_409" type="car" from="northLeft___intersectionNW" to="intersectionNE___northRight" depart="409" />    <trip id="westTop___southRight_410" type="car" from="westTop___intersectionNW" to="intersectionSE___southRight" depart="410" />    <trip id="southRight___eastBottom_417" type="car" from="southRight___intersectionSE" to="intersectionSE___eastBottom" depart="417" />    <trip id="northRight___westTop_418" type="car" from="northRight___intersectionNE" to="intersectionNW___westTop" depart="418" />    <trip id="northLeft___southLeft_420" type="car" from="northLeft___intersectionNW" to="intersectionSW___southLeft" depart="420" />    <trip id="westBottom___westTop_421" type="car" from="westBottom___intersectionSW" to="intersectionNW___westTop" depart="421" />    <trip id="westBottom___eastTop_423" type="car" from="westBottom___intersectionSW" to="intersectionNE___eastTop" depart="423" />    <trip id="southRight___northRight_428" type="car" from="southRight___intersectionSE" to="intersectionNE___northRight" depart="428" />    <trip id="southRight___eastTop_429" type="car" from="southRight___intersectionSE" to="intersectionNE___eastTop" depart="429" />    <trip id="eastTop___eastBottom_431" type="car" from="eastTop___intersectionNE" to="intersectionSE___eastBottom" depart="431" />    <trip id="northRight___westBottom_431" type="car" from="northRight___intersectionNE" to="intersectionSW___westBottom" depart="431" />    <trip id="westTop___southLeft_431" type="car" from="westTop___intersectionNW" to="intersectionSW___southLeft" depart="431" />    <trip id="southRight___westTop_436" type="car" from="southRight___intersectionSE" to="intersectionNW___westTop" depart="436" />    <trip id="southRight___southLeft_438" type="car" from="southRight___intersectionSE" to="intersectionSW___southLeft" depart="438" />    <trip id="westBottom___northRight_438" type="car" from="westBottom___intersectionSW" to="intersectionNE___northRight" depart="438" />    <trip id="northRight___westBottom_441" type="car" from="northRight___intersectionNE" to="intersectionSW___westBottom" depart="441" />    <trip id="westBottom___eastTop_444" type="car" from="westBottom___intersectionSW" to="intersectionNE___eastTop" depart="444" />    <trip id="southLeft___eastTop_448" type="car" from="southLeft___intersectionSW" to="intersectionNE___eastTop" depart="448" />    <trip id="southRight___westBottom_451" type="car" from="southRight___intersectionSE" to="intersectionSW___westBottom" depart="451" />    <trip id="eastTop___northRight_455" type="car" from="eastTop___intersectionNE" to="intersectionNE___northRight" depart="455" />    <trip id="westBottom___southLeft_456" type="car" from="westBottom___intersectionSW" to="intersectionSW___southLeft" depart="456" />    <trip id="eastBottom___northRight_459" type="car" from="eastBottom___intersectionSE" to="intersectionNE___northRight" depart="459" />    <trip id="westTop___westBottom_460" type="car" from="westTop___intersectionNW" to="intersectionSW___westBottom" depart="460" />    <trip id="northLeft___northRight_462" type="car" from="northLeft___intersectionNW" to="intersectionNE___northRight" depart="462" />    <trip id="southRight___westBottom_462" type="car" from="southRight___intersectionSE" to="intersectionSW___westBottom" depart="462" />    <trip id="eastTop___westBottom_465" type="car" from="eastTop___intersectionNE" to="intersectionSW___westBottom" depart="465" />    <trip id="northRight___westBottom_466" type="car" from="northRight___intersectionNE" to="intersectionSW___westBottom" depart="466" />    <trip id="southRight___westBottom_470" type="car" from="southRight___intersectionSE" to="intersectionSW___westBottom" depart="470" />    <trip id="eastBottom___northRight_471" type="car" from="eastBottom___intersectionSE" to="intersectionNE___northRight" depart="471" />    <trip id="southRight___westBottom_471" type="car" from="southRight___intersectionSE" to="intersectionSW___westBottom" depart="471" />    <trip id="westTop___southRight_471" type="car" from="westTop___intersectionNW" to="intersectionSE___southRight" depart="471" />    <trip id="southLeft___eastBottom_472" type="car" from="southLeft___intersectionSW" to="intersectionSE___eastBottom" depart="472" />    <trip id="northLeft___westBottom_473" type="car" from="northLeft___intersectionNW" to="intersectionSW___westBottom" depart="473" />    <trip id="northLeft___southRight_478" type="car" from="northLeft___intersectionNW" to="intersectionSE___southRight" depart="478" />    <trip id="northRight___northLeft_485" type="car" from="northRight___intersectionNE" to="intersectionNW___northLeft" depart="485" />    <trip id="northLeft___eastBottom_486" type="car" from="northLeft___intersectionNW" to="intersectionSE___eastBottom" depart="486" />    <trip id="westTop___eastTop_488" type="car" from="westTop___intersectionNW" to="intersectionNE___eastTop" depart="488" />    <trip id="southLeft___westTop_493" type="car" from="southLeft___intersectionSW" to="intersectionNW___westTop" depart="493" />    <trip id="eastBottom___westBottom_497" type="car" from="eastBottom___intersectionSE" to="intersectionSW___westBottom" depart="497" />    <trip id="southLeft___southRight_501" type="car" from="southLeft___intersectionSW" to="intersectionSE___southRight" depart="501" />    <trip id="northRight___eastBottom_504" type="car" from="northRight___intersectionNE" to="intersectionSE___eastBottom" depart="504" />    <trip id="northLeft___southRight_509" type="car" from="northLeft___intersectionNW" to="intersectionSE___southRight" depart="509" />    <trip id="westTop___southRight_509" type="car" from="westTop___intersectionNW" to="intersectionSE___southRight" depart="509" />    <trip id="northLeft___westBottom_510" type="car" from="northLeft___intersectionNW" to="intersectionSW___westBottom" depart="510" />    <trip id="southRight___eastTop_513" type="car" from="southRight___intersectionSE" to="intersectionNE___eastTop" depart="513" />    <trip id="northRight___westBottom_515" type="car" from="northRight___intersectionNE" to="intersectionSW___westBottom" depart="515" />    <trip id="northLeft___eastBottom_517" type="car" from="northLeft___intersectionNW" to="intersectionSE___eastBottom" depart="517" />    <trip id="eastBottom___eastTop_520" type="car" from="eastBottom___intersectionSE" to="intersectionNE___eastTop" depart="520" />    <trip id="eastBottom___westBottom_522" type="car" from="eastBottom___intersectionSE" to="intersectionSW___westBottom" depart="522" />    <trip id="southLeft___northRight_522" type="car" from="southLeft___intersectionSW" to="intersectionNE___northRight" depart="522" />    <trip id="eastTop___northLeft_525" type="car" from="eastTop___intersectionNE" to="intersectionNW___northLeft" depart="525" />    <trip id="southRight___northRight_525" type="car" from="southRight___intersectionSE" to="intersectionNE___northRight" depart="525" />    <trip id="southLeft___eastBottom_530" type="car" from="southLeft___intersectionSW" to="intersectionSE___eastBottom" depart="530" />    <trip id="eastBottom___southRight_531" type="car" from="eastBottom___intersectionSE" to="intersectionSE___southRight" depart="531" />    