
        <routes>
            <vType id="car" accel="0.8" decel="4.5" sigma="0.5" length="5" minGap="2.5" maxSpeed="15" guiShape="passenger"/>
            <trip id="east___west_0" type="car" from="east___intersectionCenter" to="intersectionCenter___west" depart="0" />    <trip id="north___south_0" type="car" from="north___intersectionCenter" to="intersectionCenter___south" depart="0" />    <trip id="south___north_0" type="car" from="south___intersectionCenter" to="intersectionCenter___north" depart="0" />    <trip id="west___east_0" type="car" from="west___intersectionCenter" to="intersectionCenter___east" depart="0" />    <trip id="east___west_1" type="car" from="east___intersectionCenter" to="intersectionCenter___west" depart="1" />    <trip id="north___east_1" type="car" from="north___intersectionCenter" to="intersectionCenter___east" depart="1" />    <trip id="south___north_1" type="car" from="south___intersectionCenter" to="intersectionCenter___north" depart="1" />    <trip id="west___north_1" type="car" from="west___intersectionCenter" to="intersectionCenter___north" depart="1" />    <trip id="east___south_2" type="car" from="east___intersectionCenter" to="intersectionCenter___south" depart="2" />    <trip id="north___west_2" type="car" from="north___intersectionCenter" to="intersectionCenter___west" depart="2" />    <trip id="south___east_2" type="car" from="south___intersectionCenter" to="intersectionCenter___east" depart="2" />    <trip id="west___south_2" type="car" from="west___intersectionCenter" to="intersectionCenter___south" depart="2" />    <trip id="east___north_3" type="car" from="east___intersectionCenter" to="intersectionCenter___north" depart="3" />    <trip id="north___west_3" type="car" from="north___intersectionCenter" to="intersectionCenter___west" depart="3" />    <trip id="south___east_3" type="car" from="south___intersectionCenter" to="intersectionCenter___east" depart="3" />    <trip id="west___north_3" type="car" from="west___intersectionCenter" to="intersectionCenter___north" depart="3" />    <trip id="east___south_4" type="car" from="east___intersectionCenter" to="intersectionCenter___south" depart="4" />    <trip id="north___south_4" type="car" from="north___intersectionCenter" to="intersectionCenter___south" depart="4" />    <trip id="south___west_4" type="car" from="south___intersectionCenter" to="intersectionCenter___west" depart="4" />    <trip id="west___south_4" type="car" from="west___intersectionCenter" to="intersectionCenter___south" depart="4" />    <trip id="east___west_5" type="car" from="east___intersectionCenter" to="intersectionCenter___west" depart="5" />    <trip id="north___south_5" type="car" from="north___intersectionCenter" to="intersectionCenter___south" depart="5" />    <trip id="south___east_5" type="car" from="south___intersectionCenter" to="intersectionCenter___east" depart="5" />    <trip id="west___north_5" type="car" from="west___intersectionCenter" to="intersectionCenter___north" depart="5" />    <trip id="east___west_6" type="car" from="east___intersectionCenter" to="intersectionCenter___west" depart="6" />    <trip id="north___west_6" type="car" from="north___intersectionCenter" to="intersectionCenter___west" depart="6" />    <trip id="south___east_6" type="car" from="south___intersectionCenter" to="intersectionCenter___east" depart="6" />    <trip id="west___north_6" type="car" from="west___intersectionCenter" to="intersectionCenter___north" depart="6" />    <trip id="east___south_7" type="car" from="east___intersectionCenter" to="intersectionCenter___south" depart="7" />    <trip id="north___west_7" type="car" from="north___intersectionCenter" to="intersectionCenter___west" depart="7" />    <trip id="south___east_7" type="car" from="south___intersectionCenter" to="intersectionCenter___east" depart="7" />    <trip id="west___east_7" type="car" from="west___intersectionCenter" to="intersectionCenter___east" depart="7" />    <trip id="east___south_8" type="car" from="east___intersectionCenter" to="intersectionCenter___south" depart="8" />    <trip id="north___west_8" type="car" from="north___intersectionCenter" to="intersectionCenter___west" depart="8" />    <trip id="south___north_8" type="car" from="south___intersectionCenter" to="intersectionCenter___north" depart="8" />    <trip id="west___south_8" type="car" from="west___intersectionCenter" to="intersectionCenter___south" depart="8" />    <trip id="east___north_9" type="car" from="east___intersectionCenter" to="intersectionCenter___north" depart="9" />    <trip id="north___west_9" type="car" from="north___intersectionCenter" to="intersectionCenter___west" depart="9" />    <trip id="south___north_9" type="car" from="south___intersectionCenter" to="intersectionCenter___north" depart="9" />    <trip id="west___east_9" type="car" from="west___intersectionCenter" to="intersectionCenter___east" depart="9" />    <trip id="east___west_10" type="car" from="east___intersectionCenter" to="intersectionCenter___west" depart="10" />    <trip id="north___south_10" type="car" from="north___intersectionCenter" to="intersectionCenter___south" depart="10" />    <trip id="south___east_10" type="car" from="south___intersectionCenter" to="intersectionCenter___east" depart="10" />    <trip id="west___north_10" type="car" from="west___intersectionCenter" to="intersectionCenter___north" depart="10" />    <trip id="east___north_11" type="car" from="east___intersectionCenter" to="intersectionCenter___north" depart="11" />    <trip id="north___west_11" type="car" from="north___intersectionCenter" to="intersectionCenter___west" depart="11" />    <trip id="south___west_11" type="car" from="south___intersectionCenter" to="intersectionCenter___west" depart="11" />    <trip id="west___south_11" type="car" from="west___intersectionCenter" to="intersectionCenter___south" depart="11" />    <trip id="east___west_12" type="car" from="east___intersectionCenter" to="intersectionCenter___west" depart="12" />    <trip id="north___east_12" type="car" from="north___intersectionCenter" to="intersectionCenter___east" depart="12" />    <trip id="south___east_12" type="car" from="south___intersectionCenter" to="intersectionCenter___east" depart="12" />    <trip id="west___north_12" type="car" from="west___intersectionCenter" to="intersectionCenter___north" depart="12" />    <trip id="east___south_13" type="car" from="east___intersectionCenter" to="intersectionCenter___south" depart="13" />    <trip id="north___west_13" type="car" from="north___intersectionCenter" to="intersectionCenter___west" depart="13" />    <trip id="south___north_13" type="car" from="south___intersectionCenter" to="intersectionCenter___north" depart="13" />    <trip id="west___north_13" type="car" from="west___intersectionCenter" to="intersectionCenter___north" depart="13" />    <trip id="east___west_14" type="car" from="east___intersectionCenter" to="intersectionCenter___west" depart="14" />    <trip id="north___south_14" type="car" from="north___intersectionCenter" to="intersectionCenter___south" depart="14" />    <trip id="south___west_14" type="car" from="south___intersectionCenter" to="intersectionCenter___west" depart="14" />    <trip id="west___north_14" type="car" from="west___intersectionCenter" to="intersectionCenter___north" depart="14" />    <trip id="east___north_15" type="car" from="east___intersectionCenter" to="intersectionCenter___north" depart="15" />    <trip id="north___east_15" type="car" from="north___intersectionCenter" to="intersectionCenter___east" depart="15" />    <trip id="south___east_15" type="car" from="south___intersectionCenter" to="intersectionCenter___east" depart="15" />    <trip id="west___north_15" type="car" from="west___intersectionCenter" to="intersectionCenter___north" depart="15" />    <trip id="east___west_16" type="car" from="east___intersectionCenter" to="intersectionCenter___west" depart="16" />    <trip id="north___east_16" type="car" from="north___intersectionCenter" to="intersectionCenter___east" depart="16" />    <trip id="south___west_16" type="car" from="south___intersectionCenter" to="intersectionCenter___west" depart="16" />    <trip id="west___north_16" type="car" from="west___intersectionCenter" to="intersectionCenter___north" depart="16" />    <trip id="east___south_17" type="car" from="east___intersectionCenter" to="intersectionCenter___south" depart="17" />    <trip id="north___east_17" type="car" from="north___intersectionCenter" to="intersectionCenter___east" depart="17" />    <trip id="south___east_17" type="car" from="south___intersectionCenter" to="intersectionCenter___east" depart="17" />    <trip id="west___south_17" type="car" from="west___intersectionCenter" to="intersectionCenter___south" depart="17" />    <trip id="east___south_18" type="car" from="east___intersectionCenter" to="intersectionCenter___south" depart="18" />    <trip id="north___south_18" type="car" from="north___intersectionCenter" to="intersectionCenter___south" depart="18" />    <trip id="south___east_18" type="car" from="south___intersectionCenter" to="intersectionCenter___east" depart="18" />    <trip id="west___east_18" type="car" from="west___intersectionCenter" to="intersectionCenter___east" depart="18" />    <trip id="east___north_19" type="car" from="east___intersectionCenter" to="intersectionCenter___north" depart="19" />    <trip id="north___west_19" type="car" from="north___intersectionCenter" to="intersectionCenter___west" depart="19" />    <trip id="south___east_19" type="car" from="south___intersectionCenter" to="intersectionCenter___east" depart="19" />    <trip id="west___east_19" type="car" from="west___intersectionCenter" to="intersectionCenter___east" depart="19" />    <trip id="east___north_20" type="car" from="east___intersectionCenter" to="intersectionCenter___north" depart="20" />    <trip id="north___east_20" type="car" from="north___intersectionCenter" to="intersectionCenter___east" depart="20" />    <trip id="south___north_20" type="car" from="south___intersectionCenter" to="intersectionCenter___north" depart="20" />    <trip id="west___south_20" type="car" from="west___intersectionCenter" to="intersectionCenter___south" depart="20" />    <trip id="east___north_21" type="car" from="east___intersectionCenter" to="intersectionCenter___north" depart="21" />    <trip id="north___west_21" type="car" from="north___intersectionCenter" to="intersectionCenter___west" depart="21" />    <trip id="south___east_21" type="car" from="south___intersectionCenter" to="intersectionCenter___east" depart="21" />    <trip id="west___east_21" type="car" from="west___intersectionCenter" to="intersectionCenter___east" depart="21" />    <trip id="east___south_22" type="car" from="east___intersectionCenter" to="intersectionCenter___south" depart="22" />    <trip id="north___east_22" type="car" from="north___intersectionCenter" to="intersectionCenter___east" depart="22" />    <trip id="south___north_22" type="car" from="south___intersectionCenter" to="intersectionCenter___north" depart="22" />    <trip id="west___south_22" type="car" from="west___intersectionCenter" to="intersectionCenter___south" depart="22" />    <trip id="east___west_23" type="car" from="east___intersectionCenter" to="intersectionCenter___west" depart="23" />    <trip id="north___south_23" type="car" from="north___intersectionCenter" to="intersectionCenter___south" depart="23" />    <trip id="south___east_23" type="car" from="south___intersectionCenter" to="intersectionCenter___east" depart="23" />    <trip id="west___north_23" type="car" from="west___intersectionCenter" to="intersectionCenter___north" depart="23" />    <trip id="east___west_24" type="car" from="east___intersectionCenter" to="intersectionCenter___west" depart="24" />    <trip id="north___south_24" type="car" from="north___intersectionCenter" to="intersectionCenter___south" depart="24" />    <trip id="south___east_24" type="car" from="south___intersectionCenter" to="intersectionCenter___east" depart="24" />    <trip id="west___north_24" type="car" from="west___intersectionCenter" to="intersectionCenter___north" depart="24" />    <trip id="east___north_25" type="car" from="east___intersectionCenter" to="intersectionCenter___north" depart="25" />    <trip id="north___east_25" type="car" from="north___intersectionCenter" to="intersectionCenter___east" depart="25" />    <trip id="south___west_25" type="car" from="south___intersectionCenter" to="intersectionCenter___west" depart="25" />    <trip id="west___north_25" type="car" from="west___intersectionCenter" to="intersectionCenter___north" depart="25" />    <trip id="east___south_26" type="car" from="east___intersectionCenter" to="intersectionCenter___south" depart="26" />    <trip id="north___east_26" type="car" from="north___intersectionCenter" to="intersectionCenter___east" depart="26" />    <trip id="south___east_26" type="car" from="south___intersectionCenter" to="intersectionCenter___east" depart="26" />    <trip id="west___east_26" type="car" from="west___intersectionCenter" to="intersectionCenter___east" depart="26" />    <trip id="east___south_27" type="car" from="east___intersectionCenter" to="intersectionCenter___south" depart="27" />    <trip id="north___east_27" type="car" from="north___intersectionCenter" to="intersectionCenter___east" depart="27" />    <trip id="south___north_27" type="car" from="south___intersectionCenter" to="intersectionCenter___north" depart="27" />    <trip id="west___south_27" type="car" from="west___intersectionCenter" to="intersectionCenter___south" depart="27" />    <trip id="east___south_28" type="car" from="east___intersectionCenter" to="intersectionCenter___south" depart="28" />    <trip id="north___east_28" type="car" from="north___intersectionCenter" to="intersectionCenter___east" depart="28" />    <trip id="south___north_28" type="car" from="south___intersectionCenter" to="intersectionCenter___north" depart="28" />    <trip id="west___north_28" type="car" from="west___intersectionCenter" to="intersectionCenter___north" depart="28" />    <trip id="east___west_29" type="car" from="east___intersectionCenter" to="intersectionCenter___west" depart="29" />    <trip id="north___west_29" type="car" from="north___intersectionCenter" to="intersectionCenter___west" depart="29" />    <trip id="south___west_29" type="car" from="south___intersectionCenter" to="intersectionCenter___west" depart="29" />    <trip id="west___east_29" type="car" from="west___intersectionCenter" to="intersectionCenter___east" depart="29" />    <trip id="east___west_30" type="car" from="east___intersectionCenter" to="intersectionCenter___west" depart="30" />    <trip id="north___south_30" type="car" from="north___intersectionCenter" to="intersectionCenter___south" depart="30" />    <trip id="south___west_30" type="car" from="south___intersectionCenter" to="intersectionCenter___west" depart="30" />    <trip id="west___north_30" type="car" from="west___intersectionCenter" to="intersectionCenter___north" depart="30" />    <trip id="east___west_31" type="car" from="east___intersectionCenter" to="intersectionCenter___west" depart="31" />    <trip id="north___west_31" type="car" from="north___intersectionCenter" to="intersectionCenter___west" depart="31" />    <trip id="south___north_31" type="car" from="south___intersectionCenter" to="intersectionCenter___north" depart="31" />    <trip id="west___south_31" type="car" from="west___intersectionCenter" to="intersectionCenter___south" depart="31" />    <trip id="east___south_32" type="car" from="east___intersectionCenter" to="intersectionCenter___south" depart="32" />    <trip id="north___south_32" type="car" from="north___intersectionCenter" to="intersectionCenter___south" depart="32" />    <trip id="south___north_32" type="car" from="south___intersectionCenter" to="intersectionCenter___north" depart="32" />    <trip id="west___south_32" type="car" from="west___intersectionCenter" to="intersectionCenter___south" depart="32" />    <trip id="east___north_33" type="car" from="east___intersectionCenter" to="intersectionCenter___north" depart="33" />    <trip id="north___east_33" type="car" from="north___intersectionCenter" to="intersectionCenter___east" depart="33" />    <trip id="south___north_33" type="car" from="south___intersectionCenter" to="intersectionCenter___north" depart="33" />    <trip id="west___north_33" type="car" from="west___intersectionCenter" to="intersectionCenter___north" depart="33" />    <trip id="east___north_34" type="car" from="east___intersectionCenter" to="intersectionCenter___north" depart="34" />    <trip id="north___west_34" type="car" from="north___intersectionCenter" to="intersectionCenter___west" depart="34" />    <trip id="south___west_34" type="car" from="south___intersectionCenter" to="intersectionCenter___west" depart="34" />    <trip id="west___east_34" type="car" from="west___intersectionCenter" to="intersectionCenter___east" depart="34" />    <trip id="east___south_35" type="car" from="east___intersectionCenter" to="intersectionCenter___south" depart="35" />    <trip id="north___east_35" type="car" from="north___intersectionCenter" to="intersectionCenter___east" depart="35" />    <trip id="south___east_35" type="car" from="south___intersectionCenter" to="intersectionCenter___east" depart="35" />    <trip id="west___north_35" type="car" from="west___intersectionCenter" to="intersectionCenter___north" depart="35" />    <trip id="east___south_36" type="car" from="east___intersectionCenter" to="intersectionCenter___south" depart="36" />    <trip id="north___east_36" type="car" from="north___intersectionCenter" to="intersectionCenter___east" depart="36" />    <trip id="south___west_36" type="car" from="south___intersectionCenter" to="intersectionCenter___west" depart="36" />    <trip id="west___south_36" type="car" from="west___intersectionCenter" to="intersectionCenter___south" depart="36" />    <trip id="east___west_37" type="car" from="east___intersectionCenter" to="intersectionCenter___west" depart="37" />    <trip id="north___east_37" type="car" from="north___intersectionCenter" to="intersectionCenter___east" depart="37" />    <trip id="south___east_37" type="car" from="south___intersectionCenter" to="intersectionCenter___east" depart="37" />    <trip id="west___east_37" type="car" from="west___intersectionCenter" to="intersectionCenter___east" depart="37" />    <trip id="east___west_38" type="car" from="east___intersectionCenter" to="intersectionCenter___west" depart="38" />    <trip id="north___east_38" type="car" from="north___intersectionCenter" to="intersectionCenter___east" depart="38" />    <trip id="south___east_38" type="car" from="south___intersectionCenter" to="intersectionCenter___east" depart="38" />    <trip id="west___north_38" type="car" from="west___intersectionCenter" to="intersectionCenter___north" depart="38" />    <trip id="east___south_39" type="car" from="east___intersectionCenter" to="intersectionCenter___south" depart="39" />    <trip id="north___west_39" type="car" from="north___intersectionCenter" to="intersectionCenter___west" depart="39" />    <trip id="south___west_39" type="car" from="south___intersectionCenter" to="intersectionCenter___west" depart="39" />    <trip id="west___north_39" type="car" from="west___intersectionCenter" to="intersectionCenter___north" depart="39" />    <trip id="east___west_40" type="car" from="east___intersectionCenter" to="intersectionCenter___west" depart="40" />    <trip id="north___south_40" type="car" from="north___intersectionCenter" to="intersectionCenter___south" depart="40" />    <trip id="south___north_40" type="car" from="south___intersectionCenter" to="intersectionCenter___north" depart="40" />    <trip id="west___south_40" type="car" from="west___intersectionCenter" to="intersectionCenter___south" depart="40" />    <trip id="east___west_41" type="car" from="east___intersectionCenter" to="intersectionCenter___west" depart="41" />    <trip id="north___east_41" type="car" from="north___intersectionCenter" to="intersectionCenter___east" depart="41" />    <trip id="south___east_41" type="car" from="south___intersectionCenter" to="intersectionCenter___east" depart="41" />    <trip id="west___north_41" type="car" from="west___intersectionCenter" to="intersectionCenter___north" depart="41" />    <trip id="east___north_42" type="car" from="east___intersectionCenter" to="intersectionCenter___north" depart="42" />    <trip id="north___south_42" type="car" from="north___intersectionCenter" to="intersectionCenter___south" depart="42" />    <trip id="south___north_42" type="car" from="south___intersectionCenter" to="intersectionCenter___north" depart="42" />    <trip id="west___south_42" type="car" from="west___intersectionCenter" to="intersectionCenter___south" depart="42" />    <trip id="east___west_43" type="car" from="east___intersectionCenter" to="intersectionCenter___west" depart="43" />    <trip id="north___east_43" type="car" from="north___intersectionCenter" to="intersectionCenter___east" depart="43" />    <trip id="south___east_43" type="car" from="south___intersectionCenter" to="intersectionCenter___east" depart="43" />    <trip id="west___south_43" type="car" from="west___intersectionCenter" to="intersectionCenter___south" depart="43" />    <trip id="east___west_44" type="car" from="east___intersectionCenter" to="intersectionCenter___west" depart="44" />    <trip id="north___south_44" type="car" from="north___intersectionCenter" to="intersectionCenter___south" depart="44" />    <trip id="south___east_44" type="car" from="south___intersectionCenter" to="intersectionCenter___east" depart="44" />    <trip id="west___south_44" type="car" from="west___intersectionCenter" to="intersectionCenter___south" depart="44" />    <trip id="east___west_45" type="car" from="east___intersectionCenter" to="intersectionCenter___west" depart="45" />    <trip id="north___east_45" type="car" from="north___intersectionCenter" to="intersectionCenter___east" depart="45" />    <trip id="south___north_45" type="car" from="south___intersectionCenter" to="intersectionCenter___north" depart="45" />    <trip id="west___south_45" type="car" from="west___intersectionCenter" to="intersectionCenter___south" depart="45" />    <trip id="east___west_46" type="car" from="east___intersectionCenter" to="intersectionCenter___west" depart="46" />    <trip id="north___west_46" type="car" from="north___intersectionCenter" to="intersectionCenter___west" depart="46" />    <trip id="south___north_46" type="car" from="south___intersectionCenter" to="intersectionCenter___north" depart="46" />    <trip id="west___east_46" type="car" from="west___intersectionCenter" to="intersectionCenter___east" depart="46" />    <trip id="east___west_47" type="car" from="east___intersectionCenter" to="intersectionCenter___west" depart="47" />    <trip id="north___east_47" type="car" from="north___intersectionCenter" to="intersectionCenter___east" depart="47" />    <trip id="south___east_47" type="car" from="south___intersectionCenter" to="intersectionCenter___east" depart="47" />    <trip id="west___north_47" type="car" from="west___intersectionCenter" to="intersectionCenter___north" depart="47" />    <trip id="east___west_48" type="car" from="east___intersectionCenter" to="intersectionCenter___west" depart="48" />    <trip id="north___west_48" type="car" from="north___intersectionCenter" to="intersectionCenter___west" depart="48" />    <trip id="south___east_48" type="car" from="south___intersectionCenter" to="intersectionCenter___east" depart="48" />    <trip id="west___north_48" type="car" from="west___intersectionCenter" to="intersectionCenter___north" depart="48" />    <trip id="east___north_49" type="car" from="east___intersectionCenter" to="intersectionCenter___north" depart="49" />    <trip id="north___west_49" type="car" from="north___intersectionCenter" to="intersectionCenter___west" depart="49" />    <trip id="south___east_49" type="car" from="south___intersectionCenter" to="intersectionCenter___east" depart="49" />    <trip id="west___north_49" type="car" from="west___intersectionCenter" to="intersectionCenter___north" depart="49" />    <trip id="east___north_50" type="car" from="east___intersectionCenter" to="intersectionCenter___north" depart="50" />    <trip id="north___east_50" type="car" from="north___intersectionCenter" to="intersectionCenter___east" depart="50" />    <trip id="south___west_50" type="car" from="south___intersectionCenter" to="intersectionCenter___west" depart="50" />    <trip id="west___north_50" type="car" from="west___intersectionCenter" to="intersectionCenter___north" depart="50" />    <trip id="east___north_51" type="car" from="east___intersectionCenter" to="intersectionCenter___north" depart="51" />    <trip id="north___west_51" type="car" from="north___intersectionCenter" to="intersectionCenter___west" depart="51" />    <trip id="south___north_51" type="car" from="south___intersectionCenter" to="intersectionCenter___north" depart="51" />    <trip id="west___east_51" type="car" from="west___intersectionCenter" to="intersectionCenter___east" depart="51" />    <trip id="east___north_52" type="car" from="east___intersectionCenter" to="intersectionCenter___north" depart="52" />    <trip id="north___west_52" type="car" from="north___intersectionCenter" to="intersectionCenter___west" depart="52" />    <trip id="south___west_52" type="car" from="south___intersectionCenter" to="intersectionCenter___west" depart="52" />    <trip id="west___east_52" type="car" from="west___intersectionCenter" to="intersectionCenter___east" depart="52" />    <trip id="east___south_53" type="car" from="east___intersectionCenter" to="intersectionCenter___south" depart="53" />    <trip id="north___east_53" type="car" from="north___intersectionCenter" to="intersectionCenter___east" depart="53" />    <trip id="south___east_53" type="car" from="south___intersectionCenter" to="intersectionCenter___east" depart="53" />    <trip id="west___south_53" type="car" from="west___intersectionCenter" to="intersectionCenter___south" depart="53" />    <trip id="east___north_54" type="car" from="east___intersectionCenter" to="intersectionCenter___north" depart="54" />    <trip id="north___south_54" type="car" from="north___intersectionCenter" to="intersectionCenter___south" depart="54" />    <trip id="south___west_54" type="car" from="south___intersectionCenter" to="intersectionCenter___west" depart="54" />    <trip id="west___east_54" type="car" from="west___intersectionCenter" to="intersectionCenter___east" depart="54" />    <trip id="east___south_55" type="car" from="east___intersectionCenter" to="intersectionCenter___south" depart="55" />    <trip id="north___south_55" type="car" from="north___intersectionCenter" to="intersectionCenter___south" depart="55" />    <trip id="south___north_55" type="car" from="south___intersectionCenter" to="intersectionCenter___north" depart="55" />    <trip id="west___south_55" type="car" from="west___intersectionCenter" to="intersectionCenter___south" depart="55" />    <trip id="east___north_56" type="car" from="east___intersectionCenter" to="intersectionCenter___north" depart="56" />    <trip id="north___south_56" type="car" from="north___intersectionCenter" to="intersectionCenter___south" depart="56" />    <trip id="south___north_56" type="car" from="south___intersectionCenter" to="intersectionCenter___north" depart="56" />    <trip id="west___east_56" type="car" from="west___intersectionCenter" to="intersectionCenter___east" depart="56" />    <trip id="east___south_57" type="car" from="east___intersectionCenter" to="intersectionCenter___south" depart="57" />    <trip id="north___west_57" type="car" from="north___intersectionCenter" to="intersectionCenter___west" depart="57" />    <trip id="south___east_57" type="car" from="south___intersectionCenter" to="intersectionCenter___east" depart="57" />    <trip id="west___north_57" type="car" from="west___intersectionCenter" to="intersectionCenter___north" depart="57" />    <trip id="east___north_58" type="car" from="east___intersectionCenter" to="intersectionCenter___north" depart="58" />    <trip id="north___east_58" type="car" from="north___intersectionCenter" to="intersectionCenter___east" depart="58" />    <trip id="south___west_58" type="car" from="south___intersectionCenter" to="intersectionCenter___west" depart="58" />    <trip id="west___north_58" type="car" from="west___intersectionCenter" to="intersectionCenter___north" depart="58" />    <trip id="east___west_59" type="car" from="east___intersectionCenter" to="intersectionCenter___west" depart="59" />    <trip id="north___south_59" type="car" from="north___intersectionCenter" to="intersectionCenter___south" depart="59" />    <trip id="south___north_59" type="car" from="south___intersectionCenter" to="intersectionCenter___north" depart="59" />    <trip id="west___north_59" type="car" from="west___intersectionCenter" to="intersectionCenter___north" depart="59" />    <trip id="east___west_60" type="car" from="east___intersectionCenter" to="intersectionCenter___west" depart="60" />    <trip id="north___west_60" type="car" from="north___intersectionCenter" to="intersectionCenter___west" depart="60" />    <trip id="south___north_60" type="car" from="south___intersectionCenter" to="intersectionCenter___north" depart="60" />    <trip id="west___north_60" type="car" from="west___intersectionCenter" to="intersectionCenter___north" depart="60" />    <trip id="east___west_61" type="car" from="east___intersectionCenter" to="intersectionCenter___west" depart="61" />    <trip id="north___west_61" type="car" from="north___intersectionCenter" to="intersectionCenter___west" depart="61" />    <trip id="south___north_61" type="car" from="south___intersectionCenter" to="intersectionCenter___north" depart="61" />    <trip id="west___east_61" type="car" from=