
        <routes>
            <vType id="car" accel="0.8" decel="4.5" sigma="0.5" length="5" minGap="2.5" maxSpeed="15" guiShape="passenger"/>
            <trip id="eastBottom___southLeft_0" type="car" from="eastBottom___intersectionSE" to="intersectionSW___southLeft" depart="0" />    <trip id="eastTop___westTop_0" type="car" from="eastTop___intersectionNE" to="intersectionNW___westTop" depart="0" />    <trip id="northLeft___westTop_0" type="car" from="northLeft___intersectionNW" to="intersectionNW___westTop" depart="0" />    <trip id="northRight___westTop_0" type="car" from="northRight___intersectionNE" to="intersectionNW___westTop" depart="0" />    <trip id="southLeft___southRight_0" type="car" from="southLeft___intersectionSW" to="intersectionSE___southRight" depart="0" />    <trip id="southRight___westTop_0" type="car" from="southRight___intersectionSE" to="intersectionNW___westTop" depart="0" />    <trip id="westBottom___northRight_0" type="car" from="westBottom___intersectionSW" to="intersectionNE___northRight" depart="0" />    <trip id="westTop___northLeft_0" type="car" from="westTop___intersectionNW" to="intersectionNW___northLeft" depart="0" />    <trip id="eastBottom___southRight_1" type="car" from="eastBottom___intersectionSE" to="intersectionSE___southRight" depart="1" />    <trip id="eastTop___westTop_1" type="car" from="eastTop___intersectionNE" to="intersectionNW___westTop" depart="1" />    <trip id="northLeft___southRight_1" type="car" from="northLeft___intersectionNW" to="intersectionSE___southRight" depart="1" />    <trip id="northRight___northLeft_1" type="car" from="northRight___intersectionNE" to="intersectionNW___northLeft" depart="1" />    <trip id="southLeft___southRight_1" type="car" from="southLeft___intersectionSW" to="intersectionSE___southRight" depart="1" />    <trip id="southRight___northRight_1" type="car" from="southRight___intersectionSE" to="intersectionNE___northRight" depart="1" />    <trip id="westBottom___southLeft_1" type="car" from="westBottom___intersectionSW" to="intersectionSW___southLeft" depart="1" />    <trip id="westTop___northRight_1" type="car" from="westTop___intersectionNW" to="intersectionNE___northRight" depart="1" />    <trip id="eastBottom___westTop_2" type="car" from="eastBottom___intersectionSE" to="intersectionNW___westTop" depart="2" />    <trip id="eastTop___northRight_2" type="car" from="eastTop___intersectionNE" to="intersectionNE___northRight" depart="2" />    <trip id="northLeft___southRight_2" type="car" from="northLeft___intersectionNW" to="intersectionSE___southRight" depart="2" />    <trip id="northRight___westBottom_2" type="car" from="northRight___intersectionNE" to="intersectionSW___westBottom" depart="2" />    <trip id="southLeft___eastTop_2" type="car" from="southLeft___intersectionSW" to="intersectionNE___eastTop" depart="2" />    <trip id="southRight___northRight_2" type="car" from="southRight___intersectionSE" to="intersectionNE___northRight" depart="2" />    <trip id="westBottom___northLeft_2" type="car" from="westBottom___intersectionSW" to="intersectionNW___northLeft" depart="2" />    <trip id="westTop___eastBottom_2" type="car" from="westTop___intersectionNW" to="intersectionSE___eastBottom" depart="2" />    <trip id="eastBottom___southRight_3" type="car" from="eastBottom___intersectionSE" to="intersectionSE___southRight" depart="3" />    <trip id="eastTop___southLeft_3" type="car" from="eastTop___intersectionNE" to="intersectionSW___southLeft" depart="3" />    <trip id="northLeft___westTop_3" type="car" from="northLeft___intersectionNW" to="intersectionNW___westTop" depart="3" />    <trip id="northRight___westTop_3" type="car" from="northRight___intersectionNE" to="intersectionNW___westTop" depart="3" />    <trip id="southLeft___westTop_3" type="car" from="southLeft___intersectionSW" to="intersectionNW___westTop" depart="3" />    <trip id="southRight___southLeft_3" type="car" from="southRight___intersectionSE" to="intersectionSW___southLeft" depart="3" />    <trip id="westBottom___westTop_3" type="car" from="westBottom___intersectionSW" to="intersectionNW___westTop" depart="3" />    <trip id="westTop___eastTop_3" type="car" from="westTop___intersectionNW" to="intersectionNE___eastTop" depart="3" />    <trip id="eastBottom___northLeft_4" type="car" from="eastBottom___intersectionSE" to="intersectionNW___northLeft" depart="4" />    <trip id="eastTop___westTop_4" type="car" from="eastTop___intersectionNE" to="intersectionNW___westTop" depart="4" />    <trip id="northLeft___westTop_4" type="car" from="northLeft___intersectionNW" to="intersectionNW___westTop" depart="4" />    <trip id="northRight___southRight_4" type="car" from="northRight___intersectionNE" to="intersectionSE___southRight" depart="4" />    <trip id="southLeft___northLeft_4" type="car" from="southLeft___intersectionSW" to="intersectionNW___northLeft" depart="4" />    <trip id="southRight___westTop_4" type="car" from="southRight___intersectionSE" to="intersectionNW___westTop" depart="4" />    <trip id="westBottom___westTop_4" type="car" from="westBottom___intersectionSW" to="intersectionNW___westTop" depart="4" />    <trip id="westTop___southLeft_4" type="car" from="westTop___intersectionNW" to="intersectionSW___southLeft" depart="4" />    <trip id="eastBottom___westTop_5" type="car" from="eastBottom___intersectionSE" to="intersectionNW___westTop" depart="5" />    <trip id="eastTop___westTop_5" type="car" from="eastTop___intersectionNE" to="intersectionNW___westTop" depart="5" />    <trip id="northLeft___southLeft_5" type="car" from="northLeft___intersectionNW" to="intersectionSW___southLeft" depart="5" />    <trip id="northRight___southLeft_5" type="car" from="northRight___intersectionNE" to="intersectionSW___southLeft" depart="5" />    <trip id="southLeft___southRight_5" type="car" from="southLeft___intersectionSW" to="intersectionSE___southRight" depart="5" />    <trip id="southRight___northLeft_5" type="car" from="southRight___intersectionSE" to="intersectionNW___northLeft" depart="5" />    <trip id="westBottom___northRight_5" type="car" from="westBottom___intersectionSW" to="intersectionNE___northRight" depart="5" />    <trip id="westTop___southLeft_5" type="car" from="westTop___intersectionNW" to="intersectionSW___southLeft" depart="5" />    <trip id="eastBottom___northRight_6" type="car" from="eastBottom___intersectionSE" to="intersectionNE___northRight" depart="6" />    <trip id="eastTop___northRight_6" type="car" from="eastTop___intersectionNE" to="intersectionNE___northRight" depart="6" />    <trip id="northLeft___northRight_6" type="car" from="northLeft___intersectionNW" to="intersectionNE___northRight" depart="6" />    <trip id="northRight___northLeft_6" type="car" from="northRight___intersectionNE" to="intersectionNW___northLeft" depart="6" />    <trip id="southLeft___northLeft_6" type="car" from="southLeft___intersectionSW" to="intersectionNW___northLeft" depart="6" />    <trip id="southRight___westTop_6" type="car" from="southRight___intersectionSE" to="intersectionNW___westTop" depart="6" />    <trip id="westBottom___northLeft_6" type="car" from="westBottom___intersectionSW" to="intersectionNW___northLeft" depart="6" />    <trip id="westTop___northRight_6" type="car" from="westTop___intersectionNW" to="intersectionNE___northRight" depart="6" />    <trip id="eastBottom___southLeft_7" type="car" from="eastBottom___intersectionSE" to="intersectionSW___southLeft" depart="7" />    <trip id="eastTop___southLeft_7" type="car" from="eastTop___intersectionNE" to="intersectionSW___southLeft" depart="7" />    <trip id="northLeft___southRight_7" type="car" from="northLeft___intersectionNW" to="intersectionSE___southRight" depart="7" />    <trip id="northRight___westTop_7" type="car" from="northRight___intersectionNE" to="intersectionNW___westTop" depart="7" />    <trip id="southLeft___northLeft_7" type="car" from="southLeft___intersectionSW" to="intersectionNW___northLeft" depart="7" />    <trip id="southRight___westBottom_7" type="car" from="southRight___intersectionSE" to="intersectionSW___westBottom" depart="7" />    <trip id="westBottom___eastBottom_7" type="car" from="westBottom___intersectionSW" to="intersectionSE___eastBottom" depart="7" />    <trip id="westTop___eastBottom_7" type="car" from="westTop___intersectionNW" to="intersectionSE___eastBottom" depart="7" />    <trip id="eastBottom___southLeft_8" type="car" from="eastBottom___intersectionSE" to="intersectionSW___southLeft" depart="8" />    <trip id="eastTop___southLeft_8" type="car" from="eastTop___intersectionNE" to="intersectionSW___southLeft" depart="8" />    <trip id="northLeft___eastBottom_8" type="car" from="northLeft___intersectionNW" to="intersectionSE___eastBottom" depart="8" />    <trip id="northRight___westTop_8" type="car" from="northRight___intersectionNE" to="intersectionNW___westTop" depart="8" />    <trip id="southLeft___eastBottom_8" type="car" from="southLeft___intersectionSW" to="intersectionSE___eastBottom" depart="8" />    <trip id="southRight___eastBottom_8" type="car" from="southRight___intersectionSE" to="intersectionSE___eastBottom" depart="8" />    <trip id="westBottom___eastTop_8" type="car" from="westBottom___intersectionSW" to="intersectionNE___eastTop" depart="8" />    <trip id="westTop___eastTop_8" type="car" from="westTop___intersectionNW" to="intersectionNE___eastTop" depart="8" />    <trip id="eastBottom___southLeft_9" type="car" from="eastBottom___intersectionSE" to="intersectionSW___southLeft" depart="9" />    <trip id="eastTop___westBottom_9" type="car" from="eastTop___intersectionNE" to="intersectionSW___westBottom" depart="9" />    <trip id="northLeft___southRight_9" type="car" from="northLeft___intersectionNW" to="intersectionSE___southRight" depart="9" />    <trip id="northRight___northLeft_9" type="car" from="northRight___intersectionNE" to="intersectionNW___northLeft" depart="9" />    <trip id="southLeft___southRight_9" type="car" from="southLeft___intersectionSW" to="intersectionSE___southRight" depart="9" />    <trip id="southRight___northRight_9" type="car" from="southRight___intersectionSE" to="intersectionNE___northRight" depart="9" />    <trip id="westBottom___westTop_9" type="car" from="westBottom___intersectionSW" to="intersectionNW___westTop" depart="9" />    <trip id="westTop___northRight_9" type="car" from="westTop___intersectionNW" to="intersectionNE___northRight" depart="9" />    <trip id="eastBottom___northRight_10" type="car" from="eastBottom___intersectionSE" to="intersectionNE___northRight" depart="10" />    <trip id="eastTop___northLeft_10" type="car" from="eastTop___intersectionNE" to="intersectionNW___northLeft" depart="10" />    <trip id="northLeft___westBottom_10" type="car" from="northLeft___intersectionNW" to="intersectionSW___westBottom" depart="10" />    <trip id="northRight___southRight_10" type="car" from="northRight___intersectionNE" to="intersectionSE___southRight" depart="10" />    <trip id="southLeft___westTop_10" type="car" from="southLeft___intersectionSW" to="intersectionNW___westTop" depart="10" />    <trip id="southRight___southLeft_10" type="car" from="southRight___intersectionSE" to="intersectionSW___southLeft" depart="10" />    <trip id="westBottom___northRight_10" type="car" from="westBottom___intersectionSW" to="intersectionNE___northRight" depart="10" />    <trip id="westTop___eastTop_10" type="car" from="westTop___intersectionNW" to="intersectionNE___eastTop" depart="10" />    <trip id="eastBottom___southRight_11" type="car" from="eastBottom___intersectionSE" to="intersectionSE___southRight" depart="11" />    <trip id="eastTop___eastBottom_11" type="car" from="eastTop___intersectionNE" to="intersectionSE___eastBottom" depart="11" />    <trip id="northLeft___southRight_11" type="car" from="northLeft___intersectionNW" to="intersectionSE___southRight" depart="11" />    <trip id="northRight___eastBottom_11" type="car" from="northRight___intersectionNE" to="intersectionSE___eastBottom" depart="11" />    <trip id="southLeft___northRight_11" type="car" from="southLeft___intersectionSW" to="intersectionNE___northRight" depart="11" />    <trip id="southRight___northRight_11" type="car" from="southRight___intersectionSE" to="intersectionNE___northRight" depart="11" />    <trip id="westBottom___northRight_11" type="car" from="westBottom___intersectionSW" to="intersectionNE___northRight" depart="11" />    <trip id="westTop___northLeft_11" type="car" from="westTop___intersectionNW" to="intersectionNW___northLeft" depart="11" />    <trip id="eastBottom___southLeft_12" type="car" from="eastBottom___intersectionSE" to="intersectionSW___southLeft" depart="12" />    <trip id="eastTop___southLeft_12" type="car" from="eastTop___intersectionNE" to="intersectionSW___southLeft" depart="12" />    <trip id="northLeft___eastTop_12" type="car" from="northLeft___intersectionNW" to="intersectionNE___eastTop" depart="12" />    <trip id="northRight___southRight_12" type="car" from="northRight___intersectionNE" to="intersectionSE___southRight" depart="12" />    <trip id="southLeft___westBottom_12" type="car" from="southLeft___intersectionSW" to="intersectionSW___westBottom" depart="12" />    <trip id="southRight___westBottom_12" type="car" from="southRight___intersectionSE" to="intersectionSW___westBottom" depart="12" />    <trip id="westBottom___eastTop_12" type="car" from="westBottom___intersectionSW" to="intersectionNE___eastTop" depart="12" />    <trip id="westTop___northLeft_12" type="car" from="westTop___intersectionNW" to="intersectionNW___northLeft" depart="12" />    <trip id="eastBottom___northLeft_13" type="car" from="eastBottom___intersectionSE" to="intersectionNW___northLeft" depart="13" />    <trip id="eastTop___northLeft_13" type="car" from="eastTop___intersectionNE" to="intersectionNW___northLeft" depart="13" />    <trip id="northLeft___westTop_13" type="car" from="northLeft___intersectionNW" to="intersectionNW___westTop" depart="13" />    <trip id="northRight___westBottom_13" type="car" from="northRight___intersectionNE" to="intersectionSW___westBottom" depart="13" />    <trip id="southLeft___eastTop_13" type="car" from="southLeft___intersectionSW" to="intersectionNE___eastTop" depart="13" />    <trip id="southRight___northLeft_13" type="car" from="southRight___intersectionSE" to="intersectionNW___northLeft" depart="13" />    <trip id="westBottom___southLeft_13" type="car" from="westBottom___intersectionSW" to="intersectionSW___southLeft" depart="13" />    <trip id="westTop___northLeft_13" type="car" from="westTop___intersectionNW" to="intersectionNW___northLeft" depart="13" />    <trip id="eastBottom___southLeft_14" type="car" from="eastBottom___intersectionSE" to="intersectionSW___southLeft" depart="14" />    <trip id="eastTop___westBottom_14" type="car" from="eastTop___intersectionNE" to="intersectionSW___westBottom" depart="14" />    <trip id="northLeft___southLeft_14" type="car" from="northLeft___intersectionNW" to="intersectionSW___southLeft" depart="14" />    <trip id="northRight___southRight_14" type="car" from="northRight___intersectionNE" to="intersectionSE___southRight" depart="14" />    <trip id="southLeft___eastTop_14" type="car" from="southLeft___intersectionSW" to="intersectionNE___eastTop" depart="14" />    <trip id="southRight___northRight_14" type="car" from="southRight___intersectionSE" to="intersectionNE___northRight" depart="14" />    <trip id="westBottom___eastTop_14" type="car" from="westBottom___intersectionSW" to="intersectionNE___eastTop" depart="14" />    <trip id="westTop___eastTop_14" type="car" from="westTop___intersectionNW" to="intersectionNE___eastTop" depart="14" />    <trip id="eastBottom___northLeft_15" type="car" from="eastBottom___intersectionSE" to="intersectionNW___northLeft" depart="15" />    <trip id="eastTop___northRight_15" type="car" from="eastTop___intersectionNE" to="intersectionNE___northRight" depart="15" />    <trip id="northLeft___westTop_15" type="car" from="northLeft___intersectionNW" to="intersectionNW___westTop" depart="15" />    <trip id="northRight___westBottom_15" type="car" from="northRight___intersectionNE" to="intersectionSW___westBottom" depart="15" />    <trip id="southLeft___westTop_15" type="car" from="southLeft___intersectionSW" to="intersectionNW___westTop" depart="15" />    <trip id="southRight___westBottom_15" type="car" from="southRight___intersectionSE" to="intersectionSW___westBottom" depart="15" />    <trip id="westBottom___southRight_15" type="car" from="westBottom___intersectionSW" to="intersectionSE___southRight" depart="15" />    <trip id="westTop___northRight_15" type="car" from="westTop___intersectionNW" to="intersectionNE___northRight" depart="15" />    <trip id="eastBottom___northRight_16" type="car" from="eastBottom___intersectionSE" to="intersectionNE___northRight" depart="16" />    <trip id="eastTop___northLeft_16" type="car" from="eastTop___intersectionNE" to="intersectionNW___northLeft" depart="16" />    <trip id="northLeft___westBottom_16" type="car" from="northLeft___intersectionNW" to="intersectionSW___westBottom" depart="16" />    <trip id="northRight___eastTop_16" type="car" from="northRight___intersectionNE" to="intersectionNE___eastTop" depart="16" />    <trip id="southLeft___northRight_16" type="car" from="southLeft___intersectionSW" to="intersectionNE___northRight" depart="16" />    <trip id="southRight___eastTop_16" type="car" from="southRight___intersectionSE" to="intersectionNE___eastTop" depart="16" />    <trip id="westBottom___westTop_16" type="car" from="westBottom___intersectionSW" to="intersectionNW___westTop" depart="16" />    <trip id="westTop___westBottom_16" type="car" from="westTop___intersectionNW" to="intersectionSW___westBottom" depart="16" />    <trip id="eastBottom___northLeft_17" type="car" from="eastBottom___intersectionSE" to="intersectionNW___northLeft" depart="17" />    <trip id="eastTop___northRight_17" type="car" from="eastTop___intersectionNE" to="intersectionNE___northRight" depart="17" />    <trip id="northLeft___southLeft_17" type="car" from="northLeft___intersectionNW" to="intersectionSW___southLeft" depart="17" />    <trip id="northRight___northLeft_17" type="car" from="northRight___intersectionNE" to="intersectionNW___northLeft" depart="17" />    <trip id="southLeft___northLeft_17" type="car" from="southLeft___intersectionSW" to="intersectionNW___northLeft" depart="17" />    <trip id="southRight___northRight_17" type="car" from="southRight___intersectionSE" to="intersectionNE___northRight" depart="17" />    <trip id="westBottom___northLeft_17" type="car" from="westBottom___intersectionSW" to="intersectionNW___northLeft" depart="17" />    <trip id="westTop___northRight_17" type="car" from="westTop___intersectionNW" to="intersectionNE___northRight" depart="17" />    <trip id="eastBottom___westTop_18" type="car" from="eastBottom___intersectionSE" to="intersectionNW___westTop" depart="18" />    <trip id="eastTop___northLeft_18" type="car" from="eastTop___intersectionNE" to="intersectionNW___northLeft" depart="18" />    <trip id="northLeft___westBottom_18" type="car" from="northLeft___intersectionNW" to="intersectionSW___westBottom" depart="18" />    <trip id="northRight___eastBottom_18" type="car" from="northRight___intersectionNE" to="intersectionSE___eastBottom" depart="18" />    <trip id="southLeft___eastTop_18" type="car" from="southLeft___intersectionSW" to="intersectionNE___eastTop" depart="18" />    <trip id="southRight___southLeft_18" type="car" from="southRight___intersectionSE" to="intersectionSW___southLeft" depart="18" />    <trip id="westBottom___southLeft_18" type="car" from="westBottom___intersectionSW" to="intersectionSW___southLeft" depart="18" />    <trip id="westTop___westBottom_18" type="car" from="westTop___intersectionNW" to="intersectionSW___westBottom" depart="18" />    <trip id="eastBottom___westTop_19" type="car" from="eastBottom___intersectionSE" to="intersectionNW___westTop" depart="19" />    <trip id="eastTop___westBottom_19" type="car" from="eastTop___intersectionNE" to="intersectionSW___westBottom" depart="19" />    <trip id="northLeft___eastBottom_19" type="car" from="northLeft___intersectionNW" to="intersectionSE___eastBottom" depart="19" />    <trip id="northRight___westTop_19" type="car" from="northRight___intersectionNE" to="intersectionNW___westTop" depart="19" />    <trip id="southLeft___northLeft_19" type="car" from="southLeft___intersectionSW" to="intersectionNW___northLeft" depart="19" />    <trip id="southRight___southLeft_19" type="car" from="southRight___intersectionSE" to="intersectionSW___southLeft" depart="19" />    <trip id="westBottom___southRight_19" type="car" from="westBottom___intersectionSW" to="intersectionSE___southRight" depart="19" />    <trip id="westTop___eastBottom_19" type="car" from="westTop___intersectionNW" to="intersectionSE___eastBottom" depart="19" />    <trip id="eastBottom___southLeft_20" type="car" from="eastBottom___intersectionSE" to="intersectionSW___southLeft" depart="20" />    <trip id="eastTop___northLeft_20" type="car" from="eastTop___intersectionNE" to="intersectionNW___northLeft" depart="20" />    <trip id="northLeft___eastTop_20" type="car" from="northLeft___intersectionNW" to="intersectionNE___eastTop" depart="20" />    <trip id="northRight___southLeft_20" type="car" from="northRight___intersectionNE" to="intersectionSW___southLeft" depart="20" />    <trip id="southLeft___eastTop_20" type="car" from="southLeft___intersectionSW" to="intersectionNE___eastTop" depart="20" />    <trip id="southRight___westTop_20" type="car" from="southRight___intersectionSE" to="intersectionNW___westTop" depart="20" />    <trip id="westBottom___northLeft_20" type="car" from="westBottom___intersectionSW" to="intersectionNW___northLeft" depart="20" />    <trip id="westTop___westBottom_20" type="car" from="westTop___intersectionNW" to="intersectionSW___westBottom" depart="20" />    <trip id="eastBottom___eastTop_21" type="car" from="eastBottom___intersectionSE" to="intersectionNE___eastTop" depart="21" />    <trip id="eastTop___northLeft_21" type="car" from="eastTop___intersectionNE" to="intersectionNW___northLeft" depart="21" />    <trip id="northLeft___westBottom_21" type="car" from="northLeft___intersectionNW" to="intersectionSW___westBottom" depart="21" />    <trip id="northRight___westBottom_21" type="car" from="northRight___intersectionNE" to="intersectionSW___westBottom" depart="21" />    <trip id="southLeft___southRight_21" type="car" from="southLeft___intersectionSW" to="intersectionSE___southRight" depart="21" />    <trip id="southRight___southLeft_21" type="car" from="southRight___intersectionSE" to="intersectionSW___southLeft" depart="21" />    <trip id="westBottom___southLeft_21" type="car" from="westBottom___intersectionSW" to="intersectionSW___southLeft" depart="21" />    <trip id="westTop___northRight_21" type="car" from="westTop___intersectionNW" to="intersectionNE___northRight" depart="21" />    <trip id="eastBottom___eastTop_22" type="car" from="eastBottom___intersectionSE" to="intersectionNE___eastTop" depart="22" />    <trip id="eastTop___westTop_22" type="car" from="eastTop___intersectionNE" to="intersectionNW___westTop" depart="22" />    <trip id="northLeft___eastTop_22" type="car" from="northLeft___intersectionNW" to="intersectionNE___eastTop" depart="22" />    <trip id="northRight___southRight_22" type="car" from="northRight___intersectionNE" to="intersectionSE___southRight" depart="22" />    <trip id="southLeft___eastBottom_22" type="car" from="southLeft___intersectionSW" to="intersectionSE___eastBottom" depart="22" />    <trip id="southRight___westBottom_22" type="car" from="southRight___intersectionSE" to="intersectionSW___westBottom" depart="22" />    <trip id="westBottom___eastTop_22" type="car" from="westBottom___intersectionSW" to="intersectionNE___eastTop" depart="22" />    <trip id="westTop___northRight_22" type="car" from="westTop___intersectionNW" to="intersectionNE___northRight" depart="22" />    <trip id="eastBottom___northLeft_23" type="car" from="eastBottom___intersectionSE" to="intersectionNW___northLeft" depart="23" />    <trip id="eastTop___northRight_23" type="car" from="eastTop___intersectionNE" to="intersectionNE___northRight" depart="23" />    <trip id="northLeft___northRight_23" type="car" from="northLeft___intersectionNW" to="intersectionNE___northRight" depart="23" />    <trip id="northRight___southLeft_23" type="car" from="northRight___intersectionNE" to="intersectionSW___southLeft" depart="23" />    <trip id="southLeft___eastTop_23" type="car" from="southLeft___intersectionSW" to="intersectionNE___eastTop" depart="23" />    <trip id="southRight___northRight_23" type="car" from="southRight___intersectionSE" to="intersectionNE___northRight" depart="23" />    <trip id="westBottom___eastBottom_23" type="car" from="westBottom___intersectionSW" to="intersectionSE___eastBottom" depart="23" />    <trip id="westTop___northLeft_23" type="car" from="westTop___intersectionNW" to="intersectionNW___northLeft" depart="23" />    <trip id="eastBottom___eastTop_24" type="car" from="eastBottom___intersectionSE" to="intersectionNE___eastTop" depart="24" />    <trip id="eastTop___northRight_24" type="car" from="eastTop___intersectionNE" to="intersectionNE___northRight" depart="24" />    <trip id="northLeft___northRight_24" type="car" from="northLeft___intersectionNW" to="intersectionNE___northRight" depart="24" />    <trip id="northRight___eastTop_24" type="car" from="northRight___intersectionNE" to="intersectionNE___eastTop" depart="24" />    <trip id="southLeft___northLeft_24" type="car" from="southLeft___intersectionSW" to="intersectionNW___northLeft" depart="24" />    <trip id="southRight___northLeft_24" type="car" from="southRight___intersectionSE" to="intersectionNW___northLeft" depart="24" />    <trip id="westBottom___eastBottom_24" type="car" from="westBottom___intersectionSW" to="intersectionSE___eastBottom" depart="24" />    <trip id="westTop___northLeft_24" type="car" from="westTop___intersectionNW" to="intersectionNW___northLeft" depart="24" />    <trip id="eastBottom___westBottom_25" type="car" from="eastBottom___intersectionSE" to="intersectionSW___westBottom" depart="25" />    <trip id="eastTop___westTop_25" type="car" from="eastTop___intersectionNE" to="intersectionNW___westTop" depart="25" />    <trip id="northLeft___westTop_25" type="car" from="northLeft___intersectionNW" to="intersectionNW___westTop" depart="25" />    <trip id="northRight___eastBottom_25" type="car" from="northRight___intersectionNE" to="intersectionSE___eastBottom" depart="25" />    <trip id="southLeft___westTop_25" type="car" from="southLeft___intersectionSW" to="intersectionNW___westTop" depart="25" />    <trip id="southRight___westTop_25" type="car" from="southRight___intersectionSE" to="intersectionNW___westTop" depart="25" />    <trip id="westBottom___northLeft_25" type="car" from="westBottom___intersectionSW" to="intersectionNW___northLeft" depart="25" />    <trip id="westTop___eastTop_25" type="car" from="westTop___intersectionNW" to="intersectionNE___eastTop" depart="25" />    <trip id="eastBottom___northRight_26" type="car" from="eastBottom___intersectionSE" to="intersectionNE___northRight" depart="26" />    <trip id="eastTop___eastBottom_26" type="car" from="eastTop___intersectionNE" to="intersectionSE___eastBottom" depart="26" />    <trip id="northLeft___westBottom_26" type="car" from="northLeft___intersectionNW" to="intersectionSW___westBottom" depart="26" />    <trip id="northRight___eastBottom_26" type="car" from="northRight___intersectionNE" to="intersectionSE___eastBottom" depart="26" />    <trip id="southLeft___eastBottom_26" type="car" from="southLeft___intersectionSW" to="intersectionSE___eastBottom" depart="26" />    <trip id="southRight___northRight_26" type="car" from="southRight___intersectionSE" to="intersectionNE___northRight" depart="26" />    <trip id="westBottom___northRight_26" type="car" from="westBottom___intersectionSW" to="intersectionNE___northRight" depart="26" />    <trip id="westTop___northRight_26" type="car" from="westTop___intersectionNW" to="intersectionNE___northRight" depart="26" />    <trip id="eastBottom___westTop_27" type="car" from="eastBottom___intersectionSE" to="intersectionNW___westTop" depart="27" />    <trip id="eastTop___westTop_27" type="car" from="eastTop___intersectionNE" to="intersectionNW___westTop" depart="27" />    <trip id="northLeft___westTop_27" type="car" from="northLeft___intersectionNW" to="intersectionNW___westTop" depart="27" />    <trip id="northRight___southLeft_27" type="car" from="northRight___intersectionNE" to="intersectionSW___southLeft" depart="27" />    <trip id="southLeft___westTop_27" type="car" from="southLeft___intersectionSW" to="intersectionNW___westTop" depart="27" />    <trip id="southRight___northLeft_27" type="car" from="southRight___intersectionSE" to="intersectionNW___northLeft" depart="27" />    <trip id="westBottom___northRight_27" type="car" from="westBottom___intersectionSW" to="intersectionNE___northRight" depart="27" />    <trip id="westTop___northRight_27" type="car" from="westTop___intersectionNW" to="intersectionNE___northRight" depart="27" />    <trip id="eastBottom___westTop_28" type="car" from="eastBottom___intersectionSE" to="intersectionNW___westTop" depart="28" />    <trip id="eastTop___westBottom_28" type="car" from="eastTop___intersectionNE" to="intersectionSW___westBottom" depart="28" />    <trip id="northLeft___northRight_28" type="car" from="northLeft___intersectionNW" to="intersectionNE___northRight" depart="28" />    <trip id="northRight___westBottom_28" type="car" from="northRight___intersectionNE" to="intersectionSW___westBottom" depart="28" />    <trip id="southLeft___northRight_28" type="car" from="southLeft___intersectionSW" to="intersectionNE___northRight" depart="28" />    <trip id="southRight___westBottom_28" type="car" from="s