
        <routes>
            <vType id="car" accel="0.8" decel="4.5" sigma="0.5" length="5" minGap="2.5" maxSpeed="15" guiShape="passenger"/>
            <trip id="eastBottom___southMiddle_0" type="car" from="eastBottom___intersectionSE" to="intersectionS___southMiddle" depart="0" />    <trip id="eastMiddle___westMiddle_0" type="car" from="eastMiddle___intersectionE" to="intersectionW___westMiddle" depart="0" />    <trip id="eastTop___southLeft_0" type="car" from="eastTop___intersectionNE" to="intersectionSW___southLeft" depart="0" />    <trip id="northLeft___westMiddle_0" type="car" from="northLeft___intersectionNW" to="intersectionW___westMiddle" depart="0" />    <trip id="northMiddle___southLeft_0" type="car" from="northMiddle___intersectionN" to="intersectionSW___southLeft" depart="0" />    <trip id="northRight___eastBottom_0" type="car" from="northRight___intersectionNE" to="intersectionSE___eastBottom" depart="0" />    <trip id="southLeft___westMiddle_0" type="car" from="southLeft___intersectionSW" to="intersectionW___westMiddle" depart="0" />    <trip id="southMiddle___eastMiddle_0" type="car" from="southMiddle___intersectionS" to="intersectionE___eastMiddle" depart="0" />    <trip id="southRight___westBottom_0" type="car" from="southRight___intersectionSE" to="intersectionSW___westBottom" depart="0" />    <trip id="westBottom___northMiddle_0" type="car" from="westBottom___intersectionSW" to="intersectionN___northMiddle" depart="0" />    <trip id="westMiddle___northLeft_0" type="car" from="westMiddle___intersectionW" to="intersectionNW___northLeft" depart="0" />    <trip id="westTop___eastTop_0" type="car" from="westTop___intersectionNW" to="intersectionNE___eastTop" depart="0" />    <trip id="eastBottom___westBottom_1" type="car" from="eastBottom___intersectionSE" to="intersectionSW___westBottom" depart="1" />    <trip id="eastMiddle___northRight_1" type="car" from="eastMiddle___intersectionE" to="intersectionNE___northRight" depart="1" />    <trip id="eastTop___eastBottom_1" type="car" from="eastTop___intersectionNE" to="intersectionSE___eastBottom" depart="1" />    <trip id="northLeft___eastMiddle_1" type="car" from="northLeft___intersectionNW" to="intersectionE___eastMiddle" depart="1" />    <trip id="northMiddle___southLeft_1" type="car" from="northMiddle___intersectionN" to="intersectionSW___southLeft" depart="1" />    <trip id="northRight___southRight_1" type="car" from="northRight___intersectionNE" to="intersectionSE___southRight" depart="1" />    <trip id="southLeft___northLeft_1" type="car" from="southLeft___intersectionSW" to="intersectionNW___northLeft" depart="1" />    <trip id="southMiddle___westTop_1" type="car" from="southMiddle___intersectionS" to="intersectionNW___westTop" depart="1" />    <trip id="southRight___westTop_1" type="car" from="southRight___intersectionSE" to="intersectionNW___westTop" depart="1" />    <trip id="westBottom___eastTop_1" type="car" from="westBottom___intersectionSW" to="intersectionNE___eastTop" depart="1" />    <trip id="westMiddle___westBottom_1" type="car" from="westMiddle___intersectionW" to="intersectionSW___westBottom" depart="1" />    <trip id="westTop___southLeft_1" type="car" from="westTop___intersectionNW" to="intersectionSW___southLeft" depart="1" />    <trip id="eastBottom___westTop_2" type="car" from="eastBottom___intersectionSE" to="intersectionNW___westTop" depart="2" />    <trip id="eastMiddle___northRight_2" type="car" from="eastMiddle___intersectionE" to="intersectionNE___northRight" depart="2" />    <trip id="eastTop___northMiddle_2" type="car" from="eastTop___intersectionNE" to="intersectionN___northMiddle" depart="2" />    <trip id="northLeft___westBottom_2" type="car" from="northLeft___intersectionNW" to="intersectionSW___westBottom" depart="2" />    <trip id="northMiddle___northRight_2" type="car" from="northMiddle___intersectionN" to="intersectionNE___northRight" depart="2" />    <trip id="northRight___northMiddle_2" type="car" from="northRight___intersectionNE" to="intersectionN___northMiddle" depart="2" />    <trip id="southLeft___eastTop_2" type="car" from="southLeft___intersectionSW" to="intersectionNE___eastTop" depart="2" />    <trip id="southMiddle___northRight_2" type="car" from="southMiddle___intersectionS" to="intersectionNE___northRight" depart="2" />    <trip id="southRight___eastMiddle_2" type="car" from="southRight___intersectionSE" to="intersectionE___eastMiddle" depart="2" />    <trip id="westBottom___westMiddle_2" type="car" from="westBottom___intersectionSW" to="intersectionW___westMiddle" depart="2" />    <trip id="westMiddle___eastBottom_2" type="car" from="westMiddle___intersectionW" to="intersectionSE___eastBottom" depart="2" />    <trip id="westTop___northMiddle_2" type="car" from="westTop___intersectionNW" to="intersectionN___northMiddle" depart="2" />    <trip id="eastBottom___northLeft_3" type="car" from="eastBottom___intersectionSE" to="intersectionNW___northLeft" depart="3" />    <trip id="eastMiddle___westTop_3" type="car" from="eastMiddle___intersectionE" to="intersectionNW___westTop" depart="3" />    <trip id="eastTop___northRight_3" type="car" from="eastTop___intersectionNE" to="intersectionNE___northRight" depart="3" />    <trip id="northLeft___westMiddle_3" type="car" from="northLeft___intersectionNW" to="intersectionW___westMiddle" depart="3" />    <trip id="northMiddle___northLeft_3" type="car" from="northMiddle___intersectionN" to="intersectionNW___northLeft" depart="3" />    <trip id="northRight___eastBottom_3" type="car" from="northRight___intersectionNE" to="intersectionSE___eastBottom" depart="3" />    <trip id="southLeft___westTop_3" type="car" from="southLeft___intersectionSW" to="intersectionNW___westTop" depart="3" />    <trip id="southMiddle___westMiddle_3" type="car" from="southMiddle___intersectionS" to="intersectionW___westMiddle" depart="3" />    <trip id="southRight___northRight_3" type="car" from="southRight___intersectionSE" to="intersectionNE___northRight" depart="3" />    <trip id="westBottom___northLeft_3" type="car" from="westBottom___intersectionSW" to="intersectionNW___northLeft" depart="3" />    <trip id="westMiddle___eastTop_3" type="car" from="westMiddle___intersectionW" to="intersectionNE___eastTop" depart="3" />    <trip id="westTop___eastMiddle_3" type="car" from="westTop___intersectionNW" to="intersectionE___eastMiddle" depart="3" />    <trip id="eastBottom___westBottom_4" type="car" from="eastBottom___intersectionSE" to="intersectionSW___westBottom" depart="4" />    <trip id="eastMiddle___eastTop_4" type="car" from="eastMiddle___intersectionE" to="intersectionNE___eastTop" depart="4" />    <trip id="eastTop___eastBottom_4" type="car" from="eastTop___intersectionNE" to="intersectionSE___eastBottom" depart="4" />    <trip id="northLeft___southLeft_4" type="car" from="northLeft___intersectionNW" to="intersectionSW___southLeft" depart="4" />    <trip id="northMiddle___eastTop_4" type="car" from="northMiddle___intersectionN" to="intersectionNE___eastTop" depart="4" />    <trip id="northRight___westTop_4" type="car" from="northRight___intersectionNE" to="intersectionNW___westTop" depart="4" />    <trip id="southLeft___westBottom_4" type="car" from="southLeft___intersectionSW" to="intersectionSW___westBottom" depart="4" />    <trip id="southMiddle___northMiddle_4" type="car" from="southMiddle___intersectionS" to="intersectionN___northMiddle" depart="4" />    <trip id="southRight___northLeft_4" type="car" from="southRight___intersectionSE" to="intersectionNW___northLeft" depart="4" />    <trip id="westBottom___eastTop_4" type="car" from="westBottom___intersectionSW" to="intersectionNE___eastTop" depart="4" />    <trip id="westMiddle___westBottom_4" type="car" from="westMiddle___intersectionW" to="intersectionSW___westBottom" depart="4" />    <trip id="westTop___northLeft_4" type="car" from="westTop___intersectionNW" to="intersectionNW___northLeft" depart="4" />    <trip id="eastBottom___southLeft_5" type="car" from="eastBottom___intersectionSE" to="intersectionSW___southLeft" depart="5" />    <trip id="eastMiddle___southLeft_5" type="car" from="eastMiddle___intersectionE" to="intersectionSW___southLeft" depart="5" />    <trip id="eastTop___southLeft_5" type="car" from="eastTop___intersectionNE" to="intersectionSW___southLeft" depart="5" />    <trip id="northLeft___southLeft_5" type="car" from="northLeft___intersectionNW" to="intersectionSW___southLeft" depart="5" />    <trip id="northMiddle___eastBottom_5" type="car" from="northMiddle___intersectionN" to="intersectionSE___eastBottom" depart="5" />    <trip id="northRight___eastTop_5" type="car" from="northRight___intersectionNE" to="intersectionNE___eastTop" depart="5" />    <trip id="southLeft___northMiddle_5" type="car" from="southLeft___intersectionSW" to="intersectionN___northMiddle" depart="5" />    <trip id="southMiddle___westTop_5" type="car" from="southMiddle___intersectionS" to="intersectionNW___westTop" depart="5" />    <trip id="southRight___eastTop_5" type="car" from="southRight___intersectionSE" to="intersectionNE___eastTop" depart="5" />    <trip id="westBottom___northRight_5" type="car" from="westBottom___intersectionSW" to="intersectionNE___northRight" depart="5" />    <trip id="westMiddle___southRight_5" type="car" from="westMiddle___intersectionW" to="intersectionSE___southRight" depart="5" />    <trip id="westTop___eastBottom_5" type="car" from="westTop___intersectionNW" to="intersectionSE___eastBottom" depart="5" />    <trip id="eastBottom___southMiddle_6" type="car" from="eastBottom___intersectionSE" to="intersectionS___southMiddle" depart="6" />    <trip id="eastMiddle___southMiddle_6" type="car" from="eastMiddle___intersectionE" to="intersectionS___southMiddle" depart="6" />    <trip id="eastTop___westBottom_6" type="car" from="eastTop___intersectionNE" to="intersectionSW___westBottom" depart="6" />    <trip id="northLeft___southLeft_6" type="car" from="northLeft___intersectionNW" to="intersectionSW___southLeft" depart="6" />    <trip id="northMiddle___northRight_6" type="car" from="northMiddle___intersectionN" to="intersectionNE___northRight" depart="6" />    <trip id="northRight___southRight_6" type="car" from="northRight___intersectionNE" to="intersectionSE___southRight" depart="6" />    <trip id="southLeft___eastMiddle_6" type="car" from="southLeft___intersectionSW" to="intersectionE___eastMiddle" depart="6" />    <trip id="southMiddle___westBottom_6" type="car" from="southMiddle___intersectionS" to="intersectionSW___westBottom" depart="6" />    <trip id="southRight___westMiddle_6" type="car" from="southRight___intersectionSE" to="intersectionW___westMiddle" depart="6" />    <trip id="westBottom___southLeft_6" type="car" from="westBottom___intersectionSW" to="intersectionSW___southLeft" depart="6" />    <trip id="westMiddle___westBottom_6" type="car" from="westMiddle___intersectionW" to="intersectionSW___westBottom" depart="6" />    <trip id="westTop___southRight_6" type="car" from="westTop___intersectionNW" to="intersectionSE___southRight" depart="6" />    <trip id="eastBottom___northRight_7" type="car" from="eastBottom___intersectionSE" to="intersectionNE___northRight" depart="7" />    <trip id="eastMiddle___northRight_7" type="car" from="eastMiddle___intersectionE" to="intersectionNE___northRight" depart="7" />    <trip id="eastTop___northRight_7" type="car" from="eastTop___intersectionNE" to="intersectionNE___northRight" depart="7" />    <trip id="northLeft___northMiddle_7" type="car" from="northLeft___intersectionNW" to="intersectionN___northMiddle" depart="7" />    <trip id="northMiddle___southRight_7" type="car" from="northMiddle___intersectionN" to="intersectionSE___southRight" depart="7" />    <trip id="northRight___westBottom_7" type="car" from="northRight___intersectionNE" to="intersectionSW___westBottom" depart="7" />    <trip id="southLeft___northRight_7" type="car" from="southLeft___intersectionSW" to="intersectionNE___northRight" depart="7" />    <trip id="southMiddle___westTop_7" type="car" from="southMiddle___intersectionS" to="intersectionNW___westTop" depart="7" />    <trip id="southRight___eastBottom_7" type="car" from="southRight___intersectionSE" to="intersectionSE___eastBottom" depart="7" />    <trip id="westBottom___westMiddle_7" type="car" from="westBottom___intersectionSW" to="intersectionW___westMiddle" depart="7" />    <trip id="westMiddle___eastBottom_7" type="car" from="westMiddle___intersectionW" to="intersectionSE___eastBottom" depart="7" />    <trip id="westTop___eastTop_7" type="car" from="westTop___intersectionNW" to="intersectionNE___eastTop" depart="7" />    <trip id="eastBottom___westMiddle_8" type="car" from="eastBottom___intersectionSE" to="intersectionW___westMiddle" depart="8" />    <trip id="eastMiddle___southRight_8" type="car" from="eastMiddle___intersectionE" to="intersectionSE___southRight" depart="8" />    <trip id="eastTop___southMiddle_8" type="car" from="eastTop___intersectionNE" to="intersectionS___southMiddle" depart="8" />    <trip id="northLeft___southRight_8" type="car" from="northLeft___intersectionNW" to="intersectionSE___southRight" depart="8" />    <trip id="northMiddle___westMiddle_8" type="car" from="northMiddle___intersectionN" to="intersectionW___westMiddle" depart="8" />    <trip id="northRight___eastMiddle_8" type="car" from="northRight___intersectionNE" to="intersectionE___eastMiddle" depart="8" />    <trip id="southLeft___eastBottom_8" type="car" from="southLeft___intersectionSW" to="intersectionSE___eastBottom" depart="8" />    <trip id="southMiddle___westMiddle_8" type="car" from="southMiddle___intersectionS" to="intersectionW___westMiddle" depart="8" />    <trip id="southRight___southMiddle_8" type="car" from="southRight___intersectionSE" to="intersectionS___southMiddle" depart="8" />    <trip id="westBottom___northMiddle_8" type="car" from="westBottom___intersectionSW" to="intersectionN___northMiddle" depart="8" />    <trip id="westMiddle___eastTop_8" type="car" from="westMiddle___intersectionW" to="intersectionNE___eastTop" depart="8" />    <trip id="westTop___westBottom_8" type="car" from="westTop___intersectionNW" to="intersectionSW___westBottom" depart="8" />    <trip id="eastBottom___northRight_9" type="car" from="eastBottom___intersectionSE" to="intersectionNE___northRight" depart="9" />    <trip id="eastMiddle___eastBottom_9" type="car" from="eastMiddle___intersectionE" to="intersectionSE___eastBottom" depart="9" />    <trip id="eastTop___eastMiddle_9" type="car" from="eastTop___intersectionNE" to="intersectionE___eastMiddle" depart="9" />    <trip id="northLeft___northMiddle_9" type="car" from="northLeft___intersectionNW" to="intersectionN___northMiddle" depart="9" />    <trip id="northMiddle___eastBottom_9" type="car" from="northMiddle___intersectionN" to="intersectionSE___eastBottom" depart="9" />    <trip id="northRight___southMiddle_9" type="car" from="northRight___intersectionNE" to="intersectionS___southMiddle" depart="9" />    <trip id="southLeft___northLeft_9" type="car" from="southLeft___intersectionSW" to="intersectionNW___northLeft" depart="9" />    <trip id="southMiddle___westMiddle_9" type="car" from="southMiddle___intersectionS" to="intersectionW___westMiddle" depart="9" />    <trip id="southRight___northMiddle_9" type="car" from="southRight___intersectionSE" to="intersectionN___northMiddle" depart="9" />    <trip id="westBottom___southRight_9" type="car" from="westBottom___intersectionSW" to="intersectionSE___southRight" depart="9" />    <trip id="westMiddle___westBottom_9" type="car" from="westMiddle___intersectionW" to="intersectionSW___westBottom" depart="9" />    <trip id="westTop___eastTop_9" type="car" from="westTop___intersectionNW" to="intersectionNE___eastTop" depart="9" />    <trip id="eastBottom___eastTop_10" type="car" from="eastBottom___intersectionSE" to="intersectionNE___eastTop" depart="10" />    <trip id="eastMiddle___eastBottom_10" type="car" from="eastMiddle___intersectionE" to="intersectionSE___eastBottom" depart="10" />    <trip id="eastTop___westTop_10" type="car" from="eastTop___intersectionNE" to="intersectionNW___westTop" depart="10" />    <trip id="northLeft___northMiddle_10" type="car" from="northLeft___intersectionNW" to="intersectionN___northMiddle" depart="10" />    <trip id="northMiddle___eastBottom_10" type="car" from="northMiddle___intersectionN" to="intersectionSE___eastBottom" depart="10" />    <trip id="northRight___southLeft_10" type="car" from="northRight___intersectionNE" to="intersectionSW___southLeft" depart="10" />    <trip id="southLeft___eastMiddle_10" type="car" from="southLeft___intersectionSW" to="intersectionE___eastMiddle" depart="10" />    <trip id="southMiddle___southLeft_10" type="car" from="southMiddle___intersectionS" to="intersectionSW___southLeft" depart="10" />    <trip id="southRight___westBottom_10" type="car" from="southRight___intersectionSE" to="intersectionSW___westBottom" depart="10" />    <trip id="westBottom___northRight_10" type="car" from="westBottom___intersectionSW" to="intersectionNE___northRight" depart="10" />    <trip id="westMiddle___eastMiddle_10" type="car" from="westMiddle___intersectionW" to="intersectionE___eastMiddle" depart="10" />    <trip id="westTop___southLeft_10" type="car" from="westTop___intersectionNW" to="intersectionSW___southLeft" depart="10" />    <trip id="eastBottom___eastMiddle_11" type="car" from="eastBottom___intersectionSE" to="intersectionE___eastMiddle" depart="11" />    <trip id="eastMiddle___southRight_11" type="car" from="eastMiddle___intersectionE" to="intersectionSE___southRight" depart="11" />    <trip id="eastTop___westMiddle_11" type="car" from="eastTop___intersectionNE" to="intersectionW___westMiddle" depart="11" />    <trip id="northLeft___westTop_11" type="car" from="northLeft___intersectionNW" to="intersectionNW___westTop" depart="11" />    <trip id="northMiddle___southRight_11" type="car" from="northMiddle___intersectionN" to="intersectionSE___southRight" depart="11" />    <trip id="northRight___westMiddle_11" type="car" from="northRight___intersectionNE" to="intersectionW___westMiddle" depart="11" />    <trip id="southLeft___southMiddle_11" type="car" from="southLeft___intersectionSW" to="intersectionS___southMiddle" depart="11" />    <trip id="southMiddle___eastBottom_11" type="car" from="southMiddle___intersectionS" to="intersectionSE___eastBottom" depart="11" />    <trip id="southRight___southLeft_11" type="car" from="southRight___intersectionSE" to="intersectionSW___southLeft" depart="11" />    <trip id="westBottom___northRight_11" type="car" from="westBottom___intersectionSW" to="intersectionNE___northRight" depart="11" />    <trip id="westMiddle___eastBottom_11" type="car" from="westMiddle___intersectionW" to="intersectionSE___eastBottom" depart="11" />    <trip id="westTop___eastMiddle_11" type="car" from="westTop___intersectionNW" to="intersectionE___eastMiddle" depart="11" />    <trip id="eastBottom___northRight_12" type="car" from="eastBottom___intersectionSE" to="intersectionNE___northRight" depart="12" />    <trip id="eastMiddle___southRight_12" type="car" from="eastMiddle___intersectionE" to="intersectionSE___southRight" depart="12" />    <trip id="eastTop___eastBottom_12" type="car" from="eastTop___intersectionNE" to="intersectionSE___eastBottom" depart="12" />    <trip id="northLeft___westMiddle_12" type="car" from="northLeft___intersectionNW" to="intersectionW___westMiddle" depart="12" />    <trip id="northMiddle___eastBottom_12" type="car" from="northMiddle___intersectionN" to="intersectionSE___eastBottom" depart="12" />    <trip id="northRight___westMiddle_12" type="car" from="northRight___intersectionNE" to="intersectionW___westMiddle" depart="12" />    <trip id="southLeft___northRight_12" type="car" from="southLeft___intersectionSW" to="intersectionNE___northRight" depart="12" />    <trip id="southMiddle___northLeft_12" type="car" from="southMiddle___intersectionS" to="intersectionNW___northLeft" depart="12" />    <trip id="southRight___eastTop_12" type="car" from="southRight___intersectionSE" to="intersectionNE___eastTop" depart="12" />    <trip id="westBottom___southLeft_12" type="car" from="westBottom___intersectionSW" to="intersectionSW___southLeft" depart="12" />    <trip id="westMiddle___eastBottom_12" type="car" from="westMiddle___intersectionW" to="intersectionSE___eastBottom" depart="12" />    <trip id="westTop___southLeft_12" type="car" from="westTop___intersectionNW" to="intersectionSW___southLeft" depart="12" />    <trip id="eastBottom___westTop_13" type="car" from="eastBottom___intersectionSE" to="intersectionNW___westTop" depart="13" />    <trip id="eastMiddle___southRight_13" type="car" from="eastMiddle___intersectionE" to="intersectionSE___southRight" depart="13" />    <trip id="eastTop___westMiddle_13" type="car" from="eastTop___intersectionNE" to="intersectionW___westMiddle" depart="13" />    <trip id="northLeft___southRight_13" type="car" from="northLeft___intersectionNW" to="intersectionSE___southRight" depart="13" />    <trip id="northMiddle___northRight_13" type="car" from="northMiddle___intersectionN" to="intersectionNE___northRight" depart="13" />    <trip id="northRight___southRight_13" type="car" from="northRight___intersectionNE" to="intersectionSE___southRight" depart="13" />    <trip id="southLeft___northMiddle_13" type="car" from="southLeft___intersectionSW" to="intersectionN___northMiddle" depart="13" />    <trip id="southMiddle___westMiddle_13" type="car" from="southMiddle___intersectionS" to="intersectionW___westMiddle" depart="13" />    <trip id="southRight___southMiddle_13" type="car" from="southRight___intersectionSE" to="intersectionS___southMiddle" depart="13" />    <trip id="westBottom___southMiddle_13" type="car" from="westBottom___intersectionSW" to="intersectionS___southMiddle" depart="13" />    <trip id="westMiddle___eastMiddle_13" type="car" from="westMiddle___intersectionW" to="intersectionE___eastMiddle" depart="13" />    <trip id="westTop___northLeft_13" type="car" from="westTop___intersectionNW" to="intersectionNW___northLeft" depart="13" />    <trip id="eastBottom___westBottom_14" type="car" from="eastBottom___intersectionSE" to="intersectionSW___westBottom" depart="14" />    <trip id="eastMiddle___southMiddle_14" type="car" from="eastMiddle___intersectionE" to="intersectionS___southMiddle" depart="14" />    <trip id="eastTop___westTop_14" type="car" from="eastTop___intersectionNE" to="intersectionNW___westTop" depart="14" />    <trip id="northLeft___northRight_14" type="car" from="northLeft___intersectionNW" to="intersectionNE___northRight" depart="14" />    <trip id="northMiddle___westMiddle_14" type="car" from="northMiddle___intersectionN" to="intersectionW___westMiddle" depart="14" />    <trip id="northRight___southLeft_14" type="car" from="northRight___intersectionNE" to="intersectionSW___southLeft" depart="14" />    <trip id="southLeft___eastTop_14" type="car" from="southLeft___intersectionSW" to="intersectionNE___eastTop" depart="14" />    <trip id="southMiddle___westTop_14" type="car" from="southMiddle___intersectionS" to="intersectionNW___westTop" depart="14" />    <trip id="southRight___eastMiddle_14" type="car" from="southRight___intersectionSE" to="intersectionE___eastMiddle" depart="14" />    <trip id="westBottom___eastTop_14" type="car" from="westBottom___intersectionSW" to="intersectionNE___eastTop" depart="14" />    <trip id="westMiddle___southRight_14" type="car" from="westMiddle___intersectionW" to="intersectionSE___southRight" depart="14" />    <trip id="westTop___southRight_14" type="car" from="westTop___intersectionNW" to="intersectionSE___southRight" depart="14" />    <trip id="eastBottom___northRight_15" type="car" from="eastBottom___intersectionSE" to="intersectionNE___northRight" depart="15" />    <trip id="eastMiddle___northRight_15" type="car" from="eastMiddle___intersectionE" to="intersectionNE___northRight" depart="15" />    <trip id="eastTop___westBottom_15" type="car" from="eastTop___intersectionNE" to="intersectionSW___westBottom" depart="15" />    <trip id="northLeft___southRight_15" type="car" from="northLeft___intersectionNW" to="intersectionSE___southRight" depart="15" />    <trip id="northMiddle___westMiddle_15" type="car" from="northMiddle___intersectionN" to="intersectionW___westMiddle" depart="15" />    <trip id="northRight___eastTop_15" type="car" from="northRight___intersectionNE" to="intersectionNE___eastTop" depart="15" />    <trip id="southLeft___westMiddle_15" type="car" from="southLeft___intersectionSW" to="intersectionW___westMiddle" depart="15" />    <trip id="southMiddle___northLeft_15" type="car" from="southMiddle___intersectionS" to="intersectionNW___northLeft" depart="15" />    <trip id="southRight___northRight_15" type="car" from="southRight___intersectionSE" to="intersectionNE___northRight" depart="15" />    <trip id="westBottom___southRight_15" type="car" from="westBottom___intersectionSW" to="intersectionSE___southRight" depart="15" />    <trip id="westMiddle___northLeft_15" type="car" from="westMiddle___intersectionW" to="intersectionNW___northLeft" depart="15" />    <trip id="westTop___eastMiddle_15" type="car" from="westTop___intersectionNW" to="intersectionE___eastMiddle" depart="15" />    <trip id="eastBottom___westTop_16" type="car" from="eastBottom___intersectionSE" to="intersectionNW___westTop" depart="16" />    <trip id="eastMiddle___westBottom_16" type="car" from="eastMiddle___intersectionE" to="intersectionSW___westBottom" depart="16" />    <trip id="eastTop___westBottom_16" type="car" from="eastTop___intersectionNE" to="intersectionSW___westBottom" depart="16" />    <trip id="northLeft___northMiddle_16" type="car" from="northLeft___intersectionNW" to="intersectionN___northMiddle" depart="16" />    <trip id="northMiddle___southLeft_16" type="car" from="northMiddle___intersectionN" to="intersectionSW___southLeft" depart="16" />    <trip id="northRight___southMiddle_16" type="car" from="northRight___intersectionNE" to="intersectionS___southMiddle" depart="16" />    <trip id="southLeft___eastMiddle_16" type="car" from="southLeft___intersectionSW" to="intersectionE___eastMiddle" depart="16" />    <trip id="southMiddle___northRight_16" type="car" from="southMiddle___intersectionS" to="intersectionNE___northRight" depart="16" />    <trip id="southRight___eastTop_16" type="car" from="southRight___intersectionSE" to="intersectionNE___eastTop" depart="16" />    <trip id="westBottom___southLeft_16" type="car" from="westBottom___intersectionSW" to="intersectionSW___southLeft" depart="16" />    <trip id="westMiddle___westTop_16" type="car" from="westMiddle___intersectionW" to="intersectionNW___westTop" depart="16" />    <trip id="westTop___westMiddle_16" type="car" from="westTop___intersectionNW" to="intersectionW___westMiddle" depart="16" />    <trip id="eastBottom___westMiddle_17" type="car" from="eastBottom___intersectionSE" to="intersectionW___westMiddle" depart="17" />    <trip id="eastMiddle___northRight_17" type="car" from="eastMiddle___intersectionE" to="intersectionNE___northRight" depart="17" />    <trip id="eastTop___westMiddle_17" type="car" from="eastTop___intersectionNE" to="intersectionW___westMiddle" depart="17" />    <trip id="northLeft___eastTop_17" type="car" from="northLeft___intersectionNW" to="intersectionNE___eastTop" depart="17" />    <trip id="northMiddle___northRight_17" type="car" from="northMiddle___intersectionN" to="intersectionNE___northRight" depart="17" />    <trip id="northRight___eastBottom_17" type="car" from="northRight___intersectionNE" to="intersectionSE___eastBottom" depart="17" />    <trip id="southLeft___westMiddle_17" type="car" from="southLeft___intersectionSW" to="intersectionW___westMiddle" depart="17" />    <trip id="southMiddle___westMiddle_17" type="car" from="southMiddle___intersectionS" to="intersectionW___westMiddle" depart="17" />    <trip id="southRight___eastTop_17" type="car" from="southRight___intersectionSE" to="intersectionNE___eastTop" depart="17" />    <trip id="westBottom___southLeft_17" type="car" from="westBottom___intersectionSW" to="intersectionSW___southLeft" depart="17" />    <trip id="westMiddle___northLeft_17" type="car" from="westMiddle___intersectionW" to="intersectionNW___northLeft" depart="17" />    <trip id="westTop___northRight_17" type="car" from="westTop___intersectionNW" to="intersectionNE___northRight" depart="17" />    <trip id="eastBottom___westTop_18" type="car" from="eastBottom___intersectionSE" to="intersectionNW___westTop" depart="18" />    <trip id="eastMiddle___southRight_18" type="car" from="eastMiddle___intersectionE" to="intersectionSE___southRight" depart="18" />    <trip id="eastTop___northRight_18" type="car" from="eastTop___intersectionNE" to="intersectionNE___northRight" depart="18" />    <trip id="northLeft___eastBottom_18" type="car" from="northLeft___intersectionNW" to="intersectionSE___eastBottom" depart="18" />    <trip id="northMiddle___southMiddle_18" type="car" from="northMiddle___intersectionN" to="intersectionS___southMiddle" depart="18" />    <trip id="northRight___westBottom_18" type="car" from="northRight___intersectionNE" to="intersectionSW___westBottom" depart="18" />    <trip id="southLeft___eastMiddle_18" type="car" from="southLeft___intersectionSW" to="intersectionE___eastMiddle" depart="18" />    <trip id="southMiddle___southLeft_18" type="car" from="southMiddle___intersectionS" to="intersectionSW___southLeft" depart="18" />    <trip id="southRight___westTop_18" type="car" from="southRight___intersectionSE" to="intersectionNW___westTop" depart="18" />    <trip id="westBottom___northLeft_18" type="car" from="westBottom___intersectionSW" to="intersectionNW___northLeft" depart="18" />    <trip id="westMiddle___westBottom_18" type="car" from="westMiddle___intersectionW" to="intersectionSW___westBottom" depart="18" />    <trip id="westTop___southLeft_18" type="car" from