
        <routes>
            <vType id="car" accel="0.8" decel="4.5" sigma="0.5" length="5" minGap="2.5" maxSpeed="15" guiShape="passenger"/>
            <trip id="eastFour___northFour_0" type="car" from="eastFour___intersectionSixteen" to="intersectionFour___northFour" depart="0" />    <trip id="eastOne___northFour_0" type="car" from="eastOne___intersectionFour" to="intersectionFour___northFour" depart="0" />    <trip id="eastThree___eastTwo_0" type="car" from="eastThree___intersectionTwelve" to="intersectionEight___eastTwo" depart="0" />    <trip id="eastTwo___westTwo_0" type="car" from="eastTwo___intersectionEight" to="intersectionFive___westTwo" depart="0" />    <trip id="northFour___westThree_0" type="car" from="northFour___intersectionFour" to="intersectionNine___westThree" depart="0" />    <trip id="northOne___westTwo_0" type="car" from="northOne___intersectionOne" to="intersectionFive___westTwo" depart="0" />    <trip id="northThree___eastThree_0" type="car" from="northThree___intersectionThree" to="intersectionTwelve___eastThree" depart="0" />    <trip id="northTwo___westThree_0" type="car" from="northTwo___intersectionTwo" to="intersectionNine___westThree" depart="0" />    <trip id="southFour___northOne_0" type="car" from="southFour___intersectionSixteen" to="intersectionOne___northOne" depart="0" />    <trip id="southOne___northThree_0" type="car" from="southOne___intersectionThirteen" to="intersectionThree___northThree" depart="0" />    <trip id="southThree___eastFour_0" type="car" from="southThree___intersectionFifthteen" to="intersectionSixteen___eastFour" depart="0" />    <trip id="southTwo___northTwo_0" type="car" from="southTwo___intersectionFourteen" to="intersectionTwo___northTwo" depart="0" />    <trip id="westFour___southOne_0" type="car" from="westFour___intersectionThirteen" to="intersectionThirteen___southOne" depart="0" />    <trip id="westOne___eastOne_0" type="car" from="westOne___intersectionOne" to="intersectionFour___eastOne" depart="0" />    <trip id="westThree___westOne_0" type="car" from="westThree___intersectionNine" to="intersectionOne___westOne" depart="0" />    <trip id="westTwo___westOne_0" type="car" from="westTwo___intersectionFive" to="intersectionOne___westOne" depart="0" />    <trip id="eastFour___westOne_1" type="car" from="eastFour___intersectionSixteen" to="intersectionOne___westOne" depart="1" />    <trip id="eastOne___eastFour_1" type="car" from="eastOne___intersectionFour" to="intersectionSixteen___eastFour" depart="1" />    <trip id="eastThree___westFour_1" type="car" from="eastThree___intersectionTwelve" to="intersectionThirteen___westFour" depart="1" />    <trip id="eastTwo___northThree_1" type="car" from="eastTwo___intersectionEight" to="intersectionThree___northThree" depart="1" />    <trip id="northFour___eastFour_1" type="car" from="northFour___intersectionFour" to="intersectionSixteen___eastFour" depart="1" />    <trip id="northOne___westFour_1" type="car" from="northOne___intersectionOne" to="intersectionThirteen___westFour" depart="1" />    <trip id="northThree___southTwo_1" type="car" from="northThree___intersectionThree" to="intersectionFourteen___southTwo" depart="1" />    <trip id="northTwo___eastOne_1" type="car" from="northTwo___intersectionTwo" to="intersectionFour___eastOne" depart="1" />    <trip id="southFour___westTwo_1" type="car" from="southFour___intersectionSixteen" to="intersectionFive___westTwo" depart="1" />    <trip id="southOne___westThree_1" type="car" from="southOne___intersectionThirteen" to="intersectionNine___westThree" depart="1" />    <trip id="southThree___eastTwo_1" type="car" from="southThree___intersectionFifthteen" to="intersectionEight___eastTwo" depart="1" />    <trip id="southTwo___southThree_1" type="car" from="southTwo___intersectionFourteen" to="intersectionFifthteen___southThree" depart="1" />    <trip id="westFour___southTwo_1" type="car" from="westFour___intersectionThirteen" to="intersectionFourteen___southTwo" depart="1" />    <trip id="westOne___eastOne_1" type="car" from="westOne___intersectionOne" to="intersectionFour___eastOne" depart="1" />    <trip id="westThree___southThree_1" type="car" from="westThree___intersectionNine" to="intersectionFifthteen___southThree" depart="1" />    <trip id="westTwo___eastFour_1" type="car" from="westTwo___intersectionFive" to="intersectionSixteen___eastFour" depart="1" />    <trip id="eastFour___southOne_2" type="car" from="eastFour___intersectionSixteen" to="intersectionThirteen___southOne" depart="2" />    <trip id="eastOne___southOne_2" type="car" from="eastOne___intersectionFour" to="intersectionThirteen___southOne" depart="2" />    <trip id="eastThree___northThree_2" type="car" from="eastThree___intersectionTwelve" to="intersectionThree___northThree" depart="2" />    <trip id="eastTwo___westOne_2" type="car" from="eastTwo___intersectionEight" to="intersectionOne___westOne" depart="2" />    <trip id="northFour___northThree_2" type="car" from="northFour___intersectionFour" to="intersectionThree___northThree" depart="2" />    <trip id="northOne___eastOne_2" type="car" from="northOne___intersectionOne" to="intersectionFour___eastOne" depart="2" />    <trip id="northThree___westOne_2" type="car" from="northThree___intersectionThree" to="intersectionOne___westOne" depart="2" />    <trip id="northTwo___northThree_2" type="car" from="northTwo___intersectionTwo" to="intersectionThree___northThree" depart="2" />    <trip id="southFour___eastOne_2" type="car" from="southFour___intersectionSixteen" to="intersectionFour___eastOne" depart="2" />    <trip id="southOne___westFour_2" type="car" from="southOne___intersectionThirteen" to="intersectionThirteen___westFour" depart="2" />    <trip id="southThree___northFour_2" type="car" from="southThree___intersectionFifthteen" to="intersectionFour___northFour" depart="2" />    <trip id="southTwo___westOne_2" type="car" from="southTwo___intersectionFourteen" to="intersectionOne___westOne" depart="2" />    <trip id="westFour___eastThree_2" type="car" from="westFour___intersectionThirteen" to="intersectionTwelve___eastThree" depart="2" />    <trip id="westOne___eastThree_2" type="car" from="westOne___intersectionOne" to="intersectionTwelve___eastThree" depart="2" />    <trip id="westThree___northFour_2" type="car" from="westThree___intersectionNine" to="intersectionFour___northFour" depart="2" />    <trip id="westTwo___westOne_2" type="car" from="westTwo___intersectionFive" to="intersectionOne___westOne" depart="2" />    <trip id="eastFour___northFour_3" type="car" from="eastFour___intersectionSixteen" to="intersectionFour___northFour" depart="3" />    <trip id="eastOne___westThree_3" type="car" from="eastOne___intersectionFour" to="intersectionNine___westThree" depart="3" />    <trip id="eastThree___northThree_3" type="car" from="eastThree___intersectionTwelve" to="intersectionThree___northThree" depart="3" />    <trip id="eastTwo___eastOne_3" type="car" from="eastTwo___intersectionEight" to="intersectionFour___eastOne" depart="3" />    <trip id="northFour___northTwo_3" type="car" from="northFour___intersectionFour" to="intersectionTwo___northTwo" depart="3" />    <trip id="northOne___northFour_3" type="car" from="northOne___intersectionOne" to="intersectionFour___northFour" depart="3" />    <trip id="northThree___eastOne_3" type="car" from="northThree___intersectionThree" to="intersectionFour___eastOne" depart="3" />    <trip id="northTwo___eastOne_3" type="car" from="northTwo___intersectionTwo" to="intersectionFour___eastOne" depart="3" />    <trip id="southFour___eastThree_3" type="car" from="southFour___intersectionSixteen" to="intersectionTwelve___eastThree" depart="3" />    <trip id="southOne___southThree_3" type="car" from="southOne___intersectionThirteen" to="intersectionFifthteen___southThree" depart="3" />    <trip id="southThree___northOne_3" type="car" from="southThree___intersectionFifthteen" to="intersectionOne___northOne" depart="3" />    <trip id="southTwo___northOne_3" type="car" from="southTwo___intersectionFourteen" to="intersectionOne___northOne" depart="3" />    <trip id="westFour___eastTwo_3" type="car" from="westFour___intersectionThirteen" to="intersectionEight___eastTwo" depart="3" />    <trip id="westOne___southThree_3" type="car" from="westOne___intersectionOne" to="intersectionFifthteen___southThree" depart="3" />    <trip id="westThree___westOne_3" type="car" from="westThree___intersectionNine" to="intersectionOne___westOne" depart="3" />    <trip id="westTwo___eastOne_3" type="car" from="westTwo___intersectionFive" to="intersectionFour___eastOne" depart="3" />    <trip id="eastFour___westTwo_4" type="car" from="eastFour___intersectionSixteen" to="intersectionFive___westTwo" depart="4" />    <trip id="eastOne___southFour_4" type="car" from="eastOne___intersectionFour" to="intersectionSixteen___southFour" depart="4" />    <trip id="eastThree___eastOne_4" type="car" from="eastThree___intersectionTwelve" to="intersectionFour___eastOne" depart="4" />    <trip id="eastTwo___westTwo_4" type="car" from="eastTwo___intersectionEight" to="intersectionFive___westTwo" depart="4" />    <trip id="northFour___eastFour_4" type="car" from="northFour___intersectionFour" to="intersectionSixteen___eastFour" depart="4" />    <trip id="northOne___northTwo_4" type="car" from="northOne___intersectionOne" to="intersectionTwo___northTwo" depart="4" />    <trip id="northThree___westOne_4" type="car" from="northThree___intersectionThree" to="intersectionOne___westOne" depart="4" />    <trip id="northTwo___southFour_4" type="car" from="northTwo___intersectionTwo" to="intersectionSixteen___southFour" depart="4" />    <trip id="southFour___westFour_4" type="car" from="southFour___intersectionSixteen" to="intersectionThirteen___westFour" depart="4" />    <trip id="southOne___eastThree_4" type="car" from="southOne___intersectionThirteen" to="intersectionTwelve___eastThree" depart="4" />    <trip id="southThree___westThree_4" type="car" from="southThree___intersectionFifthteen" to="intersectionNine___westThree" depart="4" />    <trip id="southTwo___northFour_4" type="car" from="southTwo___intersectionFourteen" to="intersectionFour___northFour" depart="4" />    <trip id="westFour___eastTwo_4" type="car" from="westFour___intersectionThirteen" to="intersectionEight___eastTwo" depart="4" />    <trip id="westOne___northTwo_4" type="car" from="westOne___intersectionOne" to="intersectionTwo___northTwo" depart="4" />    <trip id="westThree___northThree_4" type="car" from="westThree___intersectionNine" to="intersectionThree___northThree" depart="4" />    <trip id="westTwo___westThree_4" type="car" from="westTwo___intersectionFive" to="intersectionNine___westThree" depart="4" />    <trip id="eastFour___westThree_5" type="car" from="eastFour___intersectionSixteen" to="intersectionNine___westThree" depart="5" />    <trip id="eastOne___eastFour_5" type="car" from="eastOne___intersectionFour" to="intersectionSixteen___eastFour" depart="5" />    <trip id="eastThree___northTwo_5" type="car" from="eastThree___intersectionTwelve" to="intersectionTwo___northTwo" depart="5" />    <trip id="eastTwo___westFour_5" type="car" from="eastTwo___intersectionEight" to="intersectionThirteen___westFour" depart="5" />    <trip id="northFour___eastThree_5" type="car" from="northFour___intersectionFour" to="intersectionTwelve___eastThree" depart="5" />    <trip id="northOne___northThree_5" type="car" from="northOne___intersectionOne" to="intersectionThree___northThree" depart="5" />    <trip id="northThree___northTwo_5" type="car" from="northThree___intersectionThree" to="intersectionTwo___northTwo" depart="5" />    <trip id="northTwo___northThree_5" type="car" from="northTwo___intersectionTwo" to="intersectionThree___northThree" depart="5" />    <trip id="southFour___southOne_5" type="car" from="southFour___intersectionSixteen" to="intersectionThirteen___southOne" depart="5" />    <trip id="southOne___northFour_5" type="car" from="southOne___intersectionThirteen" to="intersectionFour___northFour" depart="5" />    <trip id="southThree___northThree_5" type="car" from="southThree___intersectionFifthteen" to="intersectionThree___northThree" depart="5" />    <trip id="southTwo___westTwo_5" type="car" from="southTwo___intersectionFourteen" to="intersectionFive___westTwo" depart="5" />    <trip id="westFour___northTwo_5" type="car" from="westFour___intersectionThirteen" to="intersectionTwo___northTwo" depart="5" />    <trip id="westOne___southFour_5" type="car" from="westOne___intersectionOne" to="intersectionSixteen___southFour" depart="5" />    <trip id="westThree___northTwo_5" type="car" from="westThree___intersectionNine" to="intersectionTwo___northTwo" depart="5" />    <trip id="westTwo___eastThree_5" type="car" from="westTwo___intersectionFive" to="intersectionTwelve___eastThree" depart="5" />    <trip id="eastFour___southFour_6" type="car" from="eastFour___intersectionSixteen" to="intersectionSixteen___southFour" depart="6" />    <trip id="eastOne___northThree_6" type="car" from="eastOne___intersectionFour" to="intersectionThree___northThree" depart="6" />    <trip id="eastThree___northOne_6" type="car" from="eastThree___intersectionTwelve" to="intersectionOne___northOne" depart="6" />    <trip id="eastTwo___northOne_6" type="car" from="eastTwo___intersectionEight" to="intersectionOne___northOne" depart="6" />    <trip id="northFour___eastFour_6" type="car" from="northFour___intersectionFour" to="intersectionSixteen___eastFour" depart="6" />    <trip id="northOne___eastTwo_6" type="car" from="northOne___intersectionOne" to="intersectionEight___eastTwo" depart="6" />    <trip id="northThree___eastTwo_6" type="car" from="northThree___intersectionThree" to="intersectionEight___eastTwo" depart="6" />    <trip id="northTwo___westTwo_6" type="car" from="northTwo___intersectionTwo" to="intersectionFive___westTwo" depart="6" />    <trip id="southFour___northOne_6" type="car" from="southFour___intersectionSixteen" to="intersectionOne___northOne" depart="6" />    <trip id="southOne___westThree_6" type="car" from="southOne___intersectionThirteen" to="intersectionNine___westThree" depart="6" />    <trip id="southThree___westThree_6" type="car" from="southThree___intersectionFifthteen" to="intersectionNine___westThree" depart="6" />    <trip id="southTwo___southOne_6" type="car" from="southTwo___intersectionFourteen" to="intersectionThirteen___southOne" depart="6" />    <trip id="westFour___northFour_6" type="car" from="westFour___intersectionThirteen" to="intersectionFour___northFour" depart="6" />    <trip id="westOne___northOne_6" type="car" from="westOne___intersectionOne" to="intersectionOne___northOne" depart="6" />    <trip id="westThree___westFour_6" type="car" from="westThree___intersectionNine" to="intersectionThirteen___westFour" depart="6" />    <trip id="westTwo___eastThree_6" type="car" from="westTwo___intersectionFive" to="intersectionTwelve___eastThree" depart="6" />    <trip id="eastFour___westThree_7" type="car" from="eastFour___intersectionSixteen" to="intersectionNine___westThree" depart="7" />    <trip id="eastOne___eastFour_7" type="car" from="eastOne___intersectionFour" to="intersectionSixteen___eastFour" depart="7" />    <trip id="eastThree___eastFour_7" type="car" from="eastThree___intersectionTwelve" to="intersectionSixteen___eastFour" depart="7" />    <trip id="eastTwo___southTwo_7" type="car" from="eastTwo___intersectionEight" to="intersectionFourteen___southTwo" depart="7" />    <trip id="northFour___westFour_7" type="car" from="northFour___intersectionFour" to="intersectionThirteen___westFour" depart="7" />    <trip id="northOne___eastOne_7" type="car" from="northOne___intersectionOne" to="intersectionFour___eastOne" depart="7" />    <trip id="northThree___westThree_7" type="car" from="northThree___intersectionThree" to="intersectionNine___westThree" depart="7" />    <trip id="northTwo___northFour_7" type="car" from="northTwo___intersectionTwo" to="intersectionFour___northFour" depart="7" />    <trip id="southFour___westOne_7" type="car" from="southFour___intersectionSixteen" to="intersectionOne___westOne" depart="7" />    <trip id="southOne___westOne_7" type="car" from="southOne___intersectionThirteen" to="intersectionOne___westOne" depart="7" />    <trip id="southThree___eastTwo_7" type="car" from="southThree___intersectionFifthteen" to="intersectionEight___eastTwo" depart="7" />    <trip id="southTwo___eastFour_7" type="car" from="southTwo___intersectionFourteen" to="intersectionSixteen___eastFour" depart="7" />    <trip id="westFour___westThree_7" type="car" from="westFour___intersectionThirteen" to="intersectionNine___westThree" depart="7" />    <trip id="westOne___northTwo_7" type="car" from="westOne___intersectionOne" to="intersectionTwo___northTwo" depart="7" />    <trip id="westThree___northFour_7" type="car" from="westThree___intersectionNine" to="intersectionFour___northFour" depart="7" />    <trip id="westTwo___southThree_7" type="car" from="westTwo___intersectionFive" to="intersectionFifthteen___southThree" depart="7" />    <trip id="eastFour___westOne_8" type="car" from="eastFour___intersectionSixteen" to="intersectionOne___westOne" depart="8" />    <trip id="eastOne___eastThree_8" type="car" from="eastOne___intersectionFour" to="intersectionTwelve___eastThree" depart="8" />    <trip id="eastThree___westFour_8" type="car" from="eastThree___intersectionTwelve" to="intersectionThirteen___westFour" depart="8" />    <trip id="eastTwo___eastThree_8" type="car" from="eastTwo___intersectionEight" to="intersectionTwelve___eastThree" depart="8" />    <trip id="northFour___westFour_8" type="car" from="northFour___intersectionFour" to="intersectionThirteen___westFour" depart="8" />    <trip id="northOne___eastTwo_8" type="car" from="northOne___intersectionOne" to="intersectionEight___eastTwo" depart="8" />    <trip id="northThree___northFour_8" type="car" from="northThree___intersectionThree" to="intersectionFour___northFour" depart="8" />    <trip id="northTwo___westTwo_8" type="car" from="northTwo___intersectionTwo" to="intersectionFive___westTwo" depart="8" />    <trip id="southFour___southTwo_8" type="car" from="southFour___intersectionSixteen" to="intersectionFourteen___southTwo" depart="8" />    <trip id="southOne___northOne_8" type="car" from="southOne___intersectionThirteen" to="intersectionOne___northOne" depart="8" />    <trip id="southThree___northThree_8" type="car" from="southThree___intersectionFifthteen" to="intersectionThree___northThree" depart="8" />    <trip id="southTwo___southOne_8" type="car" from="southTwo___intersectionFourteen" to="intersectionThirteen___southOne" depart="8" />    <trip id="westFour___northFour_8" type="car" from="westFour___intersectionThirteen" to="intersectionFour___northFour" depart="8" />    <trip id="westOne___northTwo_8" type="car" from="westOne___intersectionOne" to="intersectionTwo___northTwo" depart="8" />    <trip id="westThree___eastThree_8" type="car" from="westThree___intersectionNine" to="intersectionTwelve___eastThree" depart="8" />    <trip id="westTwo___eastFour_8" type="car" from="westTwo___intersectionFive" to="intersectionSixteen___eastFour" depart="8" />    <trip id="eastFour___westTwo_9" type="car" from="eastFour___intersectionSixteen" to="intersectionFive___westTwo" depart="9" />    <trip id="eastOne___southOne_9" type="car" from="eastOne___intersectionFour" to="intersectionThirteen___southOne" depart="9" />    <trip id="eastThree___eastFour_9" type="car" from="eastThree___intersectionTwelve" to="intersectionSixteen___eastFour" depart="9" />    <trip id="eastTwo___westTwo_9" type="car" from="eastTwo___intersectionEight" to="intersectionFive___westTwo" depart="9" />    <trip id="northFour___westFour_9" type="car" from="northFour___intersectionFour" to="intersectionThirteen___westFour" depart="9" />    <trip id="northOne___eastOne_9" type="car" from="northOne___intersectionOne" to="intersectionFour___eastOne" depart="9" />    <trip id="northThree___eastThree_9" type="car" from="northThree___intersectionThree" to="intersectionTwelve___eastThree" depart="9" />    <trip id="northTwo___eastFour_9" type="car" from="northTwo___intersectionTwo" to="intersectionSixteen___eastFour" depart="9" />    <trip id="southFour___eastTwo_9" type="car" from="southFour___intersectionSixteen" to="intersectionEight___eastTwo" depart="9" />    <trip id="southOne___northOne_9" type="car" from="southOne___intersectionThirteen" to="intersectionOne___northOne" depart="9" />    <trip id="southThree___northTwo_9" type="car" from="southThree___intersectionFifthteen" to="intersectionTwo___northTwo" depart="9" />    <trip id="southTwo___eastFour_9" type="car" from="southTwo___intersectionFourteen" to="intersectionSixteen___eastFour" depart="9" />    <trip id="westFour___eastTwo_9" type="car" from="westFour___intersectionThirteen" to="intersectionEight___eastTwo" depart="9" />    <trip id="westOne___eastFour_9" type="car" from="westOne___intersectionOne" to="intersectionSixteen___eastFour" depart="9" />    <trip id="westThree___eastTwo_9" type="car" from="westThree___intersectionNine" to="intersectionEight___eastTwo" depart="9" />    <trip id="westTwo___southThree_9" type="car" from="westTwo___intersectionFive" to="intersectionFifthteen___southThree" depart="9" />    <trip id="eastFour___southThree_10" type="car" from="eastFour___intersectionSixteen" to="intersectionFifthteen___southThree" depart="10" />    <trip id="eastOne___northFour_10" type="car" from="eastOne___intersectionFour" to="intersectionFour___northFour" depart="10" />    <trip id="eastThree___eastFour_10" type="car" from="eastThree___intersectionTwelve" to="intersectionSixteen___eastFour" depart="10" />    <trip id="eastTwo___southThree_10" type="car" from="eastTwo___intersectionEight" to="intersectionFifthteen___southThree" depart="10" />    <trip id="northFour___northThree_10" type="car" from="northFour___intersectionFour" to="intersectionThree___northThree" depart="10" />    <trip id="northOne___westFour_10" type="car" from="northOne___intersectionOne" to="intersectionThirteen___westFour" depart="10" />    <trip id="northThree___eastThree_10" type="car" from="northThree___intersectionThree" to="intersectionTwelve___eastThree" depart="10" />    <trip id="northTwo___eastOne_10" type="car" from="northTwo___intersectionTwo" to="intersectionFour___eastOne" depart="10" />    <trip id="southFour___southThree_10" type="car" from="southFour___intersectionSixteen" to="intersectionFifthteen___southThree" depart="10" />    <trip id="southOne___westOne_10" type="car" from="southOne___intersectionThirteen" to="intersectionOne___westOne" depart="10" />    <trip id="southThree___westThree_10" type="car" from="southThree___intersectionFifthteen" to="intersectionNine___westThree" depart="10" />    <trip id="southTwo___eastFour_10" type="car" from="southTwo___intersectionFourteen" to="intersectionSixteen___eastFour" depart="10" />    <trip id="westFour___northFour_10" type="car" from="westFour___intersectionThirteen" to="intersectionFour___northFour" depart="10" />    <trip id="westOne___northTwo_10" type="car" from="westOne___intersectionOne" to="intersectionTwo___northTwo" depart="10" />    <trip id="westThree___eastOne_10" type="car" from="westThree___intersectionNine" to="intersectionFour___eastOne" depart="10" />    <trip id="westTwo___northThree_10" type="car" from="westTwo___intersectionFive" to="intersectionThree___northThree" depart="10" />    <trip id="eastFour___northTwo_11" type="car" from="eastFour___intersectionSixteen" to="intersectionTwo___northTwo" depart="11" />    <trip id="eastOne___northTwo_11" type="car" from="eastOne___intersectionFour" to="intersectionTwo___northTwo" depart="11" />    <trip id="eastThree___northThree_11" type="car" from="eastThree___intersectionTwelve" to="intersectionThree___northThree" depart="11" />    <trip id="eastTwo___northOne_11" type="car" from="eastTwo___intersectionEight" to="intersectionOne___northOne" depart="11" />    <trip id="northFour___eastTwo_11" type="car" from="northFour___intersectionFour" to="intersectionEight___eastTwo" depart="11" />    <trip id="northOne___eastFour_11" type="car" from="northOne___intersectionOne" to="intersectionSixteen___eastFour" depart="11" />    <trip id="northThree___northTwo_11" type="car" from="northThree___intersectionThree" to="intersectionTwo___northTwo" depart="11" />    <trip id="northTwo___westFour_11" type="car" from="northTwo___intersectionTwo" to="intersectionThirteen___westFour" depart="11" />    <trip id="southFour___southOne_11" type="car" from="southFour___intersectionSixteen" to="intersectionThirteen___southOne" depart="11" />    <trip id="southOne___southTwo_11" type="car" from="southOne___intersectionThirteen" to="intersectionFourteen___southTwo" depart="11" />    <trip id="southThree___westOne_11" type="car" from="southThree___intersectionFifthteen" to="intersectionOne___westOne" depart="11" />    <trip id="southTwo___westThree_11" type="car" from="southTwo___intersectionFourteen" to="intersectionNine___westThree" depart="11" />    <trip id="westFour___westTwo_11" type="car" from="westFour___intersectionThirteen" to="intersectionFive___westTwo" depart="11" />    <trip id="westOne___eastThree_11" type="car" from="westOne___intersectionOne" to="intersectionTwelve___eastThree" depart="11" />    <trip id="westThree___southTwo_11" type="car" from="westThree___intersectionNine" to="intersectionFourteen___southTwo" depart="11" />    <trip id="westTwo___eastOne_11" type="car" from="westTwo___intersectionFive" to="intersectionFour___eastOne" depart="11" />    <trip id="eastFour___southThree_12" type="car" from="eastFour___intersectionSixteen" to="intersectionFifthteen___southThree" depart="12" />    <trip id="eastOne___northFour_12" type="car" from="eastOne___intersectionFour" to="intersectionFour___northFour" depart="12" />    <trip id="eastThree___westFour_12" type="car" from="eastThree___intersectionTwelve" to="intersectionThirteen___westFour" depart="12" />    <trip id="eastTwo___westThree_12" type="car" from="eastTwo___intersectionEight" to="intersectionNine___westThree" depart="12" />    <trip id="northFour___westTwo_12" type="car" from="northFour___intersectionFour" to="intersectionFive___westTwo" depart="12" />    <trip id="northOne___northThree_12" type="car" from="northOne___intersectionOne" to="intersectionThree___northThree" depart="12" />    <trip id="northThree___eastOne_12" type="car" from="northThree___intersectionThree" to="intersectionFour___eastOne" depart="12" />    <trip id="northTwo___northThree_12" type="car" from="northTwo___intersectionTwo" to="intersectionThree___northThree" depart="12" />    <trip id="southFour___westThree_12" type="car" from="southFour___intersectionSixteen" to="intersectionNine___westThree" depart="12" />    <trip id="southOne___southTwo_12" type="car" from="southOne___intersectionThirteen" to="intersectionFourteen___southTwo" depart="12" />    <trip id="southThree___eastOne_12" type="car" from="southThree___intersectionFifthteen" to="intersectionFour___eastOne" depart="12" />    <trip id="southTwo___eastFour_12" type="car" from="southTwo___intersectionFourteen" to="intersectionSixteen___eastFour" depart="12" />    <trip id="westFour___eastThree_12" type="car" from="westFour___intersectionThirteen" to="intersectionTwelve___eastThree" depart="12" />    <trip id="westOne___southOne_12" type="car" from="westOne___intersectionOne" to="intersectionThirteen___southOne" depart="12" />    <trip id="westThree___northThree_12" type="car" from="westThree___intersectionNine" to="intersectionThree___northThree" depart="12" />    <trip id="westTwo___northThree_12" type="car" from="westTwo___intersectionFive" to="intersectionThree___northThree" depart="12" />    <trip id="eastFour___northTwo_13" type="car" from="eastFour___intersectionSixteen" to="intersectionTwo___northTwo" depart="13" />    <trip id="eastOne___southFour_13" type="car" from="eastOne___intersectionFour" to="intersectionSixteen___southFour" depart="13" />    <trip id="eastThree___northThree_13" type="car" from="eastThree___intersectionTwelve" to="intersectionThree___northThree" depart="13" />    <trip id="eastTwo___northFour_13" type="car" from="eastTwo___intersectionEight" to="intersectionFour___northFour" depart="13" />    <trip id="northFour___southThree_13" type="car" from="northFour___intersectionFour" to="intersectionFifthteen___southThree" depart="13" />    <trip id="northOne___southTwo_13" type="car" from="northOne___intersectionOne" to="intersectionFourteen___southTwo" depart="13" />    <trip id="northThree___southOne_13" type="car" from="northThree___intersectionThree" to="intersectionThirteen___southOne" depart="13" />    <trip id="northTwo___westFour_13" type="car" from="northTwo___intersectionTwo" to="intersectionThirteen___westFour" depart="13" />    <trip id="southFour___northOne_13" type="car" from="southFour___intersectionSixteen" to="intersectionOne___northOne" depart="13" />    <trip id="southOne___southTwo_13" type="car" from="southOne___intersectionThirteen" to="intersectionFourteen___southTwo" depart="13" />    <trip id="southThree___westFour_13" type="car" from="southThree___intersectionFifthteen" to="intersectionThirteen___westFour" depart="13" />    <trip id="southTwo___eastTwo_13" type="car" from="southTwo___intersectionFourteen" to="intersectionEight___eastTwo" depart="13" />    <trip id="westFour___eastFour_13" type="car" from="westFour___intersectionThirteen" to="intersectionSixteen___eastFour" depart="13" />    <trip id="westOne___southTwo_13" type="car" from="westOne___intersectionOne" to="intersectionFourteen___southTwo" depart="13" />    <trip id="westThree___westOne_13" type="car" from="westThree___intersectionNine" to="intersectionOne___westOne" depart="13" />    <trip id="westTwo___northTwo_13" type="car" from="westTwo___intersectionFive" to="intersectionT